
---------- Begin Simulation Statistics ----------
final_tick                               135119331000                       # Number of ticks from beginning of simulation (restored from checkpoints and never reset)
host_inst_rate                                 216970                       # Simulator instruction rate (inst/s)
host_mem_usage                                 859540                       # Number of bytes of host memory used
host_op_rate                                   370786                       # Simulator op (including micro ops) rate (op/s)
host_seconds                                     7.44                       # Real time elapsed on the host
host_tick_rate                            18149505247                       # Simulator tick rate (ticks/s)
sim_freq                                 1000000000000                       # Frequency of simulated ticks
sim_insts                                     1615264                       # Number of instructions simulated
sim_ops                                       2760422                       # Number of ops (including micro ops) simulated
sim_seconds                                  0.135119                       # Number of seconds simulated
sim_ticks                                135119331000                       # Number of ticks simulated
system.cpu.Branches                            277121                       # Number of branches fetched
system.cpu.committedInsts                     1615264                       # Number of instructions committed
system.cpu.committedOps                       2760422                       # Number of ops (including micro ops) committed
system.cpu.dtb.rdAccesses                      378693                       # TLB accesses on read requests
system.cpu.dtb.rdMisses                           875                       # TLB misses on read requests
system.cpu.dtb.wrAccesses                      149643                       # TLB accesses on write requests
system.cpu.dtb.wrMisses                            72                       # TLB misses on write requests
system.cpu.idle_fraction                     0.000000                       # Percentage of idle cycles
system.cpu.itb.rdAccesses                           0                       # TLB accesses on read requests
system.cpu.itb.rdMisses                             0                       # TLB misses on read requests
system.cpu.itb.wrAccesses                     2139135                       # TLB accesses on write requests
system.cpu.itb.wrMisses                           366                       # TLB misses on write requests
system.cpu.not_idle_fraction                 1.000000                       # Percentage of non-idle cycles
system.cpu.numCycles                        270238662                       # number of cpu cycles simulated
system.cpu.numWorkItemsCompleted                    0                       # number of work items this cpu completed
system.cpu.numWorkItemsStarted                      0                       # number of work items this cpu started
system.cpu.num_busy_cycles               270238661.998000                       # Number of busy cycles
system.cpu.num_cc_register_reads              1718597                       # number of times the CC registers were read
system.cpu.num_cc_register_writes             1362570                       # number of times the CC registers were written
system.cpu.num_conditional_control_insts       246089                       # number of instructions that are conditional controls
system.cpu.num_fp_alu_accesses                  87076                       # Number of float alu accesses
system.cpu.num_fp_insts                         87076                       # number of float instructions
system.cpu.num_fp_register_reads               113856                       # number of times the floating registers were read
system.cpu.num_fp_register_writes               71436                       # number of times the floating registers were written
system.cpu.num_func_calls                       20798                       # number of times a function call or return occured
system.cpu.num_idle_cycles                   0.002000                       # Number of idle cycles
system.cpu.num_int_alu_accesses               2692591                       # Number of integer alu accesses
system.cpu.num_int_insts                      2692591                       # number of integer instructions
system.cpu.num_int_register_reads             5465239                       # number of times the integer registers were read
system.cpu.num_int_register_writes            2325832                       # number of times the integer registers were written
system.cpu.num_load_insts                      378684                       # Number of load instructions
system.cpu.num_mem_refs                        528318                       # number of memory refs
system.cpu.num_store_insts                     149634                       # Number of store instructions
system.cpu.num_vec_alu_accesses                     0                       # Number of vector alu accesses
system.cpu.num_vec_insts                            0                       # number of vector instructions
system.cpu.num_vec_register_reads                   0                       # number of times the vector registers were read
system.cpu.num_vec_register_writes                  0                       # number of times the vector registers were written
system.cpu.op_class::No_OpClass                 17386      0.63%      0.63% # Class of executed instruction
system.cpu.op_class::IntAlu                   2147782     77.80%     78.43% # Class of executed instruction
system.cpu.op_class::IntMult                     1924      0.07%     78.50% # Class of executed instruction
system.cpu.op_class::IntDiv                     24307      0.88%     79.38% # Class of executed instruction
system.cpu.op_class::FloatAdd                    7748      0.28%     79.66% # Class of executed instruction
system.cpu.op_class::FloatCmp                       0      0.00%     79.66% # Class of executed instruction
system.cpu.op_class::FloatCvt                    1472      0.05%     79.71% # Class of executed instruction
system.cpu.op_class::FloatMult                   4000      0.14%     79.86% # Class of executed instruction
system.cpu.op_class::FloatMultAcc                   0      0.00%     79.86% # Class of executed instruction
system.cpu.op_class::FloatDiv                       0      0.00%     79.86% # Class of executed instruction
system.cpu.op_class::FloatMisc                      0      0.00%     79.86% # Class of executed instruction
system.cpu.op_class::FloatSqrt                      0      0.00%     79.86% # Class of executed instruction
system.cpu.op_class::SimdAdd                       18      0.00%     79.86% # Class of executed instruction
system.cpu.op_class::SimdAddAcc                     0      0.00%     79.86% # Class of executed instruction
system.cpu.op_class::SimdAlu                     4197      0.15%     80.01% # Class of executed instruction
system.cpu.op_class::SimdCmp                        0      0.00%     80.01% # Class of executed instruction
system.cpu.op_class::SimdCvt                      214      0.01%     80.02% # Class of executed instruction
system.cpu.op_class::SimdMisc                    4226      0.15%     80.17% # Class of executed instruction
system.cpu.op_class::SimdMult                       0      0.00%     80.17% # Class of executed instruction
system.cpu.op_class::SimdMultAcc                    0      0.00%     80.17% # Class of executed instruction
system.cpu.op_class::SimdShift                     27      0.00%     80.17% # Class of executed instruction
system.cpu.op_class::SimdShiftAcc                   0      0.00%     80.17% # Class of executed instruction
system.cpu.op_class::SimdDiv                        0      0.00%     80.17% # Class of executed instruction
system.cpu.op_class::SimdSqrt                       0      0.00%     80.17% # Class of executed instruction
system.cpu.op_class::SimdFloatAdd                8000      0.29%     80.46% # Class of executed instruction
system.cpu.op_class::SimdFloatAlu                   0      0.00%     80.46% # Class of executed instruction
system.cpu.op_class::SimdFloatCmp                   0      0.00%     80.46% # Class of executed instruction
system.cpu.op_class::SimdFloatCvt                4000      0.14%     80.61% # Class of executed instruction
system.cpu.op_class::SimdFloatDiv                2000      0.07%     80.68% # Class of executed instruction
system.cpu.op_class::SimdFloatMisc                  0      0.00%     80.68% # Class of executed instruction
system.cpu.op_class::SimdFloatMult               5000      0.18%     80.86% # Class of executed instruction
system.cpu.op_class::SimdFloatMultAcc               0      0.00%     80.86% # Class of executed instruction
system.cpu.op_class::SimdFloatSqrt                  0      0.00%     80.86% # Class of executed instruction
system.cpu.op_class::SimdReduceAdd                  0      0.00%     80.86% # Class of executed instruction
system.cpu.op_class::SimdReduceAlu                  0      0.00%     80.86% # Class of executed instruction
system.cpu.op_class::SimdReduceCmp                  0      0.00%     80.86% # Class of executed instruction
system.cpu.op_class::SimdFloatReduceAdd             0      0.00%     80.86% # Class of executed instruction
system.cpu.op_class::SimdFloatReduceCmp             0      0.00%     80.86% # Class of executed instruction
system.cpu.op_class::SimdAes                        0      0.00%     80.86% # Class of executed instruction
system.cpu.op_class::SimdAesMix                     0      0.00%     80.86% # Class of executed instruction
system.cpu.op_class::SimdSha1Hash                   0      0.00%     80.86% # Class of executed instruction
system.cpu.op_class::SimdSha1Hash2                  0      0.00%     80.86% # Class of executed instruction
system.cpu.op_class::SimdSha256Hash                 0      0.00%     80.86% # Class of executed instruction
system.cpu.op_class::SimdSha256Hash2                0      0.00%     80.86% # Class of executed instruction
system.cpu.op_class::SimdShaSigma2                  0      0.00%     80.86% # Class of executed instruction
system.cpu.op_class::SimdShaSigma3                  0      0.00%     80.86% # Class of executed instruction
system.cpu.op_class::SimdPredAlu                    0      0.00%     80.86% # Class of executed instruction
system.cpu.op_class::MemRead                   358488     12.99%     93.85% # Class of executed instruction
system.cpu.op_class::MemWrite                  135668      4.91%     98.76% # Class of executed instruction
system.cpu.op_class::FloatMemRead               20196      0.73%     99.49% # Class of executed instruction
system.cpu.op_class::FloatMemWrite              13966      0.51%    100.00% # Class of executed instruction
system.cpu.op_class::IprAccess                      0      0.00%    100.00% # Class of executed instruction
system.cpu.op_class::InstPrefetch                   0      0.00%    100.00% # Class of executed instruction
system.cpu.op_class::total                    2760619                       # Class of executed instruction
system.cpu.workload.numSyscalls                    64                       # Number of system calls
system.membus.snoop_filter.hit_multi_requests            0                       # Number of requests hitting in the snoop filter with multiple (>1) holders of the requested data.
system.membus.snoop_filter.hit_multi_snoops            0                       # Number of snoops hitting in the snoop filter with multiple (>1) holders of the requested data.
system.membus.snoop_filter.hit_single_requests            0                       # Number of requests hitting in the snoop filter with a single holder of the requested data.
system.membus.snoop_filter.hit_single_snoops            0                       # Number of snoops hitting in the snoop filter with a single holder of the requested data.
system.membus.snoop_filter.tot_requests             0                       # Total number of requests made to the snoop filter.
system.membus.snoop_filter.tot_snoops               0                       # Total number of snoops made to the snoop filter.
system.membus.trans_dist::ReadReq             2517552                       # Transaction distribution
system.membus.trans_dist::ReadResp            2517552                       # Transaction distribution
system.membus.trans_dist::WriteReq             149617                       # Transaction distribution
system.membus.trans_dist::WriteResp            149617                       # Transaction distribution
system.membus.pkt_count_system.cpu.icache_port::system.mem_ctrls.port      4278060                       # Packet count per connected master and slave (bytes)
system.membus.pkt_count_system.cpu.icache_port::total      4278060                       # Packet count per connected master and slave (bytes)
system.membus.pkt_count_system.cpu.dcache_port::system.mem_ctrls.port      1056278                       # Packet count per connected master and slave (bytes)
system.membus.pkt_count_system.cpu.dcache_port::total      1056278                       # Packet count per connected master and slave (bytes)
system.membus.pkt_count::total                5334338                       # Packet count per connected master and slave (bytes)
system.membus.pkt_size_system.cpu.icache_port::system.mem_ctrls.port     17112240                       # Cumulative packet size per connected master and slave (bytes)
system.membus.pkt_size_system.cpu.icache_port::total     17112240                       # Cumulative packet size per connected master and slave (bytes)
system.membus.pkt_size_system.cpu.dcache_port::system.mem_ctrls.port      3068057                       # Cumulative packet size per connected master and slave (bytes)
system.membus.pkt_size_system.cpu.dcache_port::total      3068057                       # Cumulative packet size per connected master and slave (bytes)
system.membus.pkt_size::total                20180297                       # Cumulative packet size per connected master and slave (bytes)
system.membus.snoops                                0                       # Total snoops (count)
system.membus.snoopTraffic                          0                       # Total snoop traffic (bytes)
system.membus.snoop_fanout::samples           2667169                       # Request fanout histogram
system.membus.snoop_fanout::mean                    0                       # Request fanout histogram
system.membus.snoop_fanout::stdev                   0                       # Request fanout histogram
system.membus.snoop_fanout::underflows              0      0.00%      0.00% # Request fanout histogram
system.membus.snoop_fanout::0                 2667169    100.00%    100.00% # Request fanout histogram
system.membus.snoop_fanout::1                       0      0.00%    100.00% # Request fanout histogram
system.membus.snoop_fanout::overflows               0      0.00%    100.00% # Request fanout histogram
system.membus.snoop_fanout::min_value               0                       # Request fanout histogram
system.membus.snoop_fanout::max_value               0                       # Request fanout histogram
system.membus.snoop_fanout::total             2667169                       # Request fanout histogram
system.membus.reqLayer2.occupancy          2816786000                       # Layer occupancy (ticks)
system.membus.reqLayer2.utilization               2.1                       # Layer utilization (%)
system.membus.respLayer1.occupancy         4862206500                       # Layer occupancy (ticks)
system.membus.respLayer1.utilization              3.6                       # Layer utilization (%)
system.membus.respLayer2.occupancy         1034102000                       # Layer occupancy (ticks)
system.membus.respLayer2.utilization              0.8                       # Layer utilization (%)
system.membus.power_state.pwrStateResidencyTicks::UNDEFINED 135119331000                       # Cumulative time (in ticks) in various power states
system.voltage_domain.voltage                       1                       # Voltage in Volts
system.clk_domain.clock                          1000                       # Clock period in ticks
system.cpu_voltage_domain.voltage                   1                       # Voltage in Volts
system.mem_ctrls.bytes_read::.cpu.inst       17112240                       # Number of bytes read from this memory
system.mem_ctrls.bytes_read::.cpu.data        1992772                       # Number of bytes read from this memory
system.mem_ctrls.bytes_read::total           19105012                       # Number of bytes read from this memory
system.mem_ctrls.bytes_inst_read::.cpu.inst     17112240                       # Number of instructions bytes read from this memory
system.mem_ctrls.bytes_inst_read::total      17112240                       # Number of instructions bytes read from this memory
system.mem_ctrls.bytes_written::.cpu.data      1075285                       # Number of bytes written to this memory
system.mem_ctrls.bytes_written::total         1075285                       # Number of bytes written to this memory
system.mem_ctrls.num_reads::.cpu.inst         2139030                       # Number of read requests responded to by this memory
system.mem_ctrls.num_reads::.cpu.data          378522                       # Number of read requests responded to by this memory
system.mem_ctrls.num_reads::total             2517552                       # Number of read requests responded to by this memory
system.mem_ctrls.num_writes::.cpu.data         149617                       # Number of write requests responded to by this memory
system.mem_ctrls.num_writes::total             149617                       # Number of write requests responded to by this memory
system.mem_ctrls.bw_read::.cpu.inst         126645387                       # Total read bandwidth from this memory (bytes/s)
system.mem_ctrls.bw_read::.cpu.data          14748238                       # Total read bandwidth from this memory (bytes/s)
system.mem_ctrls.bw_read::total             141393625                       # Total read bandwidth from this memory (bytes/s)
system.mem_ctrls.bw_inst_read::.cpu.inst    126645387                       # Instruction read bandwidth from this memory (bytes/s)
system.mem_ctrls.bw_inst_read::total        126645387                       # Instruction read bandwidth from this memory (bytes/s)
system.mem_ctrls.bw_write::.cpu.data          7958040                       # Write bandwidth from this memory (bytes/s)
system.mem_ctrls.bw_write::total              7958040                       # Write bandwidth from this memory (bytes/s)
system.mem_ctrls.bw_total::.cpu.inst        126645387                       # Total bandwidth to/from this memory (bytes/s)
system.mem_ctrls.bw_total::.cpu.data         22706277                       # Total bandwidth to/from this memory (bytes/s)
system.mem_ctrls.bw_total::total            149351665                       # Total bandwidth to/from this memory (bytes/s)
system.mem_ctrls.avgPriority_.cpu.inst::samples   2139030.00                       # Average QoS priority value for accepted requests
system.mem_ctrls.avgPriority_.cpu.data::samples    354710.00                       # Average QoS priority value for accepted requests
system.mem_ctrls.priorityMinLatency      0.000000018750                       # per QoS priority minimum request to response latency (s)
system.mem_ctrls.priorityMaxLatency      0.022412762500                       # per QoS priority maximum request to response latency (s)
system.mem_ctrls.numReadWriteTurnArounds          354                       # Number of turnarounds from READ to WRITE
system.mem_ctrls.numWriteReadTurnArounds          354                       # Number of turnarounds from WRITE to READ
system.mem_ctrls.numStayReadState             5159958                       # Number of times bus staying in READ state
system.mem_ctrls.numStayWriteState               5345                       # Number of times bus staying in WRITE state
system.mem_ctrls.readReqs                     2517552                       # Number of read requests accepted
system.mem_ctrls.writeReqs                     149617                       # Number of write requests accepted
system.mem_ctrls.readBursts                   2517552                       # Number of DRAM read bursts, including those serviced by the write queue
system.mem_ctrls.writeBursts                   149617                       # Number of DRAM write bursts, including those merged in the write queue
system.mem_ctrls.servicedByWrQ                  29542                       # Number of DRAM read bursts serviced by the write queue
system.mem_ctrls.mergedWrBursts                143887                       # Number of DRAM write bursts merged with an existing one
system.mem_ctrls.neitherReadNorWriteReqs            0                       # Number of requests that are neither read nor write
system.mem_ctrls.perBankRdBursts::0            395078                       # Per bank write bursts
system.mem_ctrls.perBankRdBursts::1             17308                       # Per bank write bursts
system.mem_ctrls.perBankRdBursts::2             10209                       # Per bank write bursts
system.mem_ctrls.perBankRdBursts::3             16514                       # Per bank write bursts
system.mem_ctrls.perBankRdBursts::4             57856                       # Per bank write bursts
system.mem_ctrls.perBankRdBursts::5            101408                       # Per bank write bursts
system.mem_ctrls.perBankRdBursts::6           1162799                       # Per bank write bursts
system.mem_ctrls.perBankRdBursts::7            371988                       # Per bank write bursts
system.mem_ctrls.perBankRdBursts::8             37395                       # Per bank write bursts
system.mem_ctrls.perBankRdBursts::9             22594                       # Per bank write bursts
system.mem_ctrls.perBankRdBursts::10            30463                       # Per bank write bursts
system.mem_ctrls.perBankRdBursts::11            10229                       # Per bank write bursts
system.mem_ctrls.perBankRdBursts::12            11334                       # Per bank write bursts
system.mem_ctrls.perBankRdBursts::13            52855                       # Per bank write bursts
system.mem_ctrls.perBankRdBursts::14           164531                       # Per bank write bursts
system.mem_ctrls.perBankRdBursts::15            25449                       # Per bank write bursts
system.mem_ctrls.perBankWrBursts::0               516                       # Per bank write bursts
system.mem_ctrls.perBankWrBursts::1               132                       # Per bank write bursts
system.mem_ctrls.perBankWrBursts::2                47                       # Per bank write bursts
system.mem_ctrls.perBankWrBursts::3               381                       # Per bank write bursts
system.mem_ctrls.perBankWrBursts::4               774                       # Per bank write bursts
system.mem_ctrls.perBankWrBursts::5              1387                       # Per bank write bursts
system.mem_ctrls.perBankWrBursts::6               200                       # Per bank write bursts
system.mem_ctrls.perBankWrBursts::7                 0                       # Per bank write bursts
system.mem_ctrls.perBankWrBursts::8                 0                       # Per bank write bursts
system.mem_ctrls.perBankWrBursts::9               135                       # Per bank write bursts
system.mem_ctrls.perBankWrBursts::10                5                       # Per bank write bursts
system.mem_ctrls.perBankWrBursts::11              220                       # Per bank write bursts
system.mem_ctrls.perBankWrBursts::12              331                       # Per bank write bursts
system.mem_ctrls.perBankWrBursts::13              253                       # Per bank write bursts
system.mem_ctrls.perBankWrBursts::14              400                       # Per bank write bursts
system.mem_ctrls.perBankWrBursts::15              918                       # Per bank write bursts
system.mem_ctrls.avgRdQLen                       1.00                       # Average read queue length when enqueuing
system.mem_ctrls.avgWrQLen                      26.85                       # Average write queue length when enqueuing
system.mem_ctrls.totQLat                   9384922000                       # Total ticks spent queuing
system.mem_ctrls.totBusLat                12440050000                       # Total ticks spent in databus transfers
system.mem_ctrls.totMemAccLat             56035109500                       # Total ticks spent from burst creation until serviced by the DRAM
system.mem_ctrls.avgQLat                      3772.06                       # Average queueing delay per DRAM burst
system.mem_ctrls.avgBusLat                    5000.00                       # Average bus latency per DRAM burst
system.mem_ctrls.avgMemAccLat                22522.06                       # Average memory access latency per DRAM burst
system.mem_ctrls.numRdRetry                         0                       # Number of times read queue was full causing retry
system.mem_ctrls.numWrRetry                         0                       # Number of times write queue was full causing retry
system.mem_ctrls.readRowHits                  2208714                       # Number of row buffer hits during reads
system.mem_ctrls.writeRowHits                    4991                       # Number of row buffer hits during writes
system.mem_ctrls.readRowHitRate                 88.77                       # Row buffer hit rate for reads
system.mem_ctrls.writeRowHitRate                87.10                       # Row buffer hit rate for writes
system.mem_ctrls.readPktSize::0                114753                       # Read request sizes (log2)
system.mem_ctrls.readPktSize::1                  8903                       # Read request sizes (log2)
system.mem_ctrls.readPktSize::2                 44676                       # Read request sizes (log2)
system.mem_ctrls.readPktSize::3               2349220                       # Read request sizes (log2)
system.mem_ctrls.readPktSize::4                     0                       # Read request sizes (log2)
system.mem_ctrls.readPktSize::5                     0                       # Read request sizes (log2)
system.mem_ctrls.readPktSize::6                     0                       # Read request sizes (log2)
system.mem_ctrls.writePktSize::0                 6066                       # Write request sizes (log2)
system.mem_ctrls.writePktSize::1                 1252                       # Write request sizes (log2)
system.mem_ctrls.writePktSize::2                17916                       # Write request sizes (log2)
system.mem_ctrls.writePktSize::3               124383                       # Write request sizes (log2)
system.mem_ctrls.writePktSize::4                    0                       # Write request sizes (log2)
system.mem_ctrls.writePktSize::5                    0                       # Write request sizes (log2)
system.mem_ctrls.writePktSize::6                    0                       # Write request sizes (log2)
system.mem_ctrls.rdQLenPdf::0                 2488006                       # What read queue length does an incoming req see
system.mem_ctrls.rdQLenPdf::1                       4                       # What read queue length does an incoming req see
system.mem_ctrls.rdQLenPdf::2                       0                       # What read queue length does an incoming req see
system.mem_ctrls.rdQLenPdf::3                       0                       # What read queue length does an incoming req see
system.mem_ctrls.rdQLenPdf::4                       0                       # What read queue length does an incoming req see
system.mem_ctrls.rdQLenPdf::5                       0                       # What read queue length does an incoming req see
system.mem_ctrls.rdQLenPdf::6                       0                       # What read queue length does an incoming req see
system.mem_ctrls.rdQLenPdf::7                       0                       # What read queue length does an incoming req see
system.mem_ctrls.rdQLenPdf::8                       0                       # What read queue length does an incoming req see
system.mem_ctrls.rdQLenPdf::9                       0                       # What read queue length does an incoming req see
system.mem_ctrls.rdQLenPdf::10                      0                       # What read queue length does an incoming req see
system.mem_ctrls.rdQLenPdf::11                      0                       # What read queue length does an incoming req see
system.mem_ctrls.rdQLenPdf::12                      0                       # What read queue length does an incoming req see
system.mem_ctrls.rdQLenPdf::13                      0                       # What read queue length does an incoming req see
system.mem_ctrls.rdQLenPdf::14                      0                       # What read queue length does an incoming req see
system.mem_ctrls.rdQLenPdf::15                      0                       # What read queue length does an incoming req see
system.mem_ctrls.rdQLenPdf::16                      0                       # What read queue length does an incoming req see
system.mem_ctrls.rdQLenPdf::17                      0                       # What read queue length does an incoming req see
system.mem_ctrls.rdQLenPdf::18                      0                       # What read queue length does an incoming req see
system.mem_ctrls.rdQLenPdf::19                      0                       # What read queue length does an incoming req see
system.mem_ctrls.rdQLenPdf::20                      0                       # What read queue length does an incoming req see
system.mem_ctrls.rdQLenPdf::21                      0                       # What read queue length does an incoming req see
system.mem_ctrls.rdQLenPdf::22                      0                       # What read queue length does an incoming req see
system.mem_ctrls.rdQLenPdf::23                      0                       # What read queue length does an incoming req see
system.mem_ctrls.rdQLenPdf::24                      0                       # What read queue length does an incoming req see
system.mem_ctrls.rdQLenPdf::25                      0                       # What read queue length does an incoming req see
system.mem_ctrls.rdQLenPdf::26                      0                       # What read queue length does an incoming req see
system.mem_ctrls.rdQLenPdf::27                      0                       # What read queue length does an incoming req see
system.mem_ctrls.rdQLenPdf::28                      0                       # What read queue length does an incoming req see
system.mem_ctrls.rdQLenPdf::29                      0                       # What read queue length does an incoming req see
system.mem_ctrls.rdQLenPdf::30                      0                       # What read queue length does an incoming req see
system.mem_ctrls.rdQLenPdf::31                      0                       # What read queue length does an incoming req see
system.mem_ctrls.wrQLenPdf::0                       1                       # What write queue length does an incoming req see
system.mem_ctrls.wrQLenPdf::1                       1                       # What write queue length does an incoming req see
system.mem_ctrls.wrQLenPdf::2                       1                       # What write queue length does an incoming req see
system.mem_ctrls.wrQLenPdf::3                       1                       # What write queue length does an incoming req see
system.mem_ctrls.wrQLenPdf::4                       1                       # What write queue length does an incoming req see
system.mem_ctrls.wrQLenPdf::5                       1                       # What write queue length does an incoming req see
system.mem_ctrls.wrQLenPdf::6                       1                       # What write queue length does an incoming req see
system.mem_ctrls.wrQLenPdf::7                       1                       # What write queue length does an incoming req see
system.mem_ctrls.wrQLenPdf::8                       1                       # What write queue length does an incoming req see
system.mem_ctrls.wrQLenPdf::9                       1                       # What write queue length does an incoming req see
system.mem_ctrls.wrQLenPdf::10                      1                       # What write queue length does an incoming req see
system.mem_ctrls.wrQLenPdf::11                      1                       # What write queue length does an incoming req see
system.mem_ctrls.wrQLenPdf::12                      1                       # What write queue length does an incoming req see
system.mem_ctrls.wrQLenPdf::13                      1                       # What write queue length does an incoming req see
system.mem_ctrls.wrQLenPdf::14                      1                       # What write queue length does an incoming req see
system.mem_ctrls.wrQLenPdf::15                     17                       # What write queue length does an incoming req see
system.mem_ctrls.wrQLenPdf::16                     17                       # What write queue length does an incoming req see
system.mem_ctrls.wrQLenPdf::17                    356                       # What write queue length does an incoming req see
system.mem_ctrls.wrQLenPdf::18                    355                       # What write queue length does an incoming req see
system.mem_ctrls.wrQLenPdf::19                    357                       # What write queue length does an incoming req see
system.mem_ctrls.wrQLenPdf::20                    355                       # What write queue length does an incoming req see
system.mem_ctrls.wrQLenPdf::21                    355                       # What write queue length does an incoming req see
system.mem_ctrls.wrQLenPdf::22                    355                       # What write queue length does an incoming req see
system.mem_ctrls.wrQLenPdf::23                    355                       # What write queue length does an incoming req see
system.mem_ctrls.wrQLenPdf::24                    355                       # What write queue length does an incoming req see
system.mem_ctrls.wrQLenPdf::25                    355                       # What write queue length does an incoming req see
system.mem_ctrls.wrQLenPdf::26                    355                       # What write queue length does an incoming req see
system.mem_ctrls.wrQLenPdf::27                    355                       # What write queue length does an incoming req see
system.mem_ctrls.wrQLenPdf::28                    355                       # What write queue length does an incoming req see
system.mem_ctrls.wrQLenPdf::29                    355                       # What write queue length does an incoming req see
system.mem_ctrls.wrQLenPdf::30                    355                       # What write queue length does an incoming req see
system.mem_ctrls.wrQLenPdf::31                    354                       # What write queue length does an incoming req see
system.mem_ctrls.wrQLenPdf::32                    354                       # What write queue length does an incoming req see
system.mem_ctrls.wrQLenPdf::33                      0                       # What write queue length does an incoming req see
system.mem_ctrls.wrQLenPdf::34                      0                       # What write queue length does an incoming req see
system.mem_ctrls.wrQLenPdf::35                      0                       # What write queue length does an incoming req see
system.mem_ctrls.wrQLenPdf::36                      0                       # What write queue length does an incoming req see
system.mem_ctrls.wrQLenPdf::37                      0                       # What write queue length does an incoming req see
system.mem_ctrls.wrQLenPdf::38                      0                       # What write queue length does an incoming req see
system.mem_ctrls.wrQLenPdf::39                      0                       # What write queue length does an incoming req see
system.mem_ctrls.wrQLenPdf::40                      0                       # What write queue length does an incoming req see
system.mem_ctrls.wrQLenPdf::41                      0                       # What write queue length does an incoming req see
system.mem_ctrls.wrQLenPdf::42                      0                       # What write queue length does an incoming req see
system.mem_ctrls.wrQLenPdf::43                      0                       # What write queue length does an incoming req see
system.mem_ctrls.wrQLenPdf::44                      0                       # What write queue length does an incoming req see
system.mem_ctrls.wrQLenPdf::45                      0                       # What write queue length does an incoming req see
system.mem_ctrls.wrQLenPdf::46                      0                       # What write queue length does an incoming req see
system.mem_ctrls.wrQLenPdf::47                      0                       # What write queue length does an incoming req see
system.mem_ctrls.wrQLenPdf::48                      0                       # What write queue length does an incoming req see
system.mem_ctrls.wrQLenPdf::49                      0                       # What write queue length does an incoming req see
system.mem_ctrls.wrQLenPdf::50                      0                       # What write queue length does an incoming req see
system.mem_ctrls.wrQLenPdf::51                      0                       # What write queue length does an incoming req see
system.mem_ctrls.wrQLenPdf::52                      0                       # What write queue length does an incoming req see
system.mem_ctrls.wrQLenPdf::53                      0                       # What write queue length does an incoming req see
system.mem_ctrls.wrQLenPdf::54                      0                       # What write queue length does an incoming req see
system.mem_ctrls.wrQLenPdf::55                      0                       # What write queue length does an incoming req see
system.mem_ctrls.wrQLenPdf::56                      0                       # What write queue length does an incoming req see
system.mem_ctrls.wrQLenPdf::57                      0                       # What write queue length does an incoming req see
system.mem_ctrls.wrQLenPdf::58                      0                       # What write queue length does an incoming req see
system.mem_ctrls.wrQLenPdf::59                      0                       # What write queue length does an incoming req see
system.mem_ctrls.wrQLenPdf::60                      0                       # What write queue length does an incoming req see
system.mem_ctrls.wrQLenPdf::61                      0                       # What write queue length does an incoming req see
system.mem_ctrls.wrQLenPdf::62                      0                       # What write queue length does an incoming req see
system.mem_ctrls.wrQLenPdf::63                      0                       # What write queue length does an incoming req see
system.mem_ctrls.bytesPerActivate::samples       279998                       # Bytes accessed per row activation
system.mem_ctrls.bytesPerActivate::mean    569.987157                       # Bytes accessed per row activation
system.mem_ctrls.bytesPerActivate::gmean   352.583642                       # Bytes accessed per row activation
system.mem_ctrls.bytesPerActivate::stdev   415.629603                       # Bytes accessed per row activation
system.mem_ctrls.bytesPerActivate::0-127        67123     23.97%     23.97% # Bytes accessed per row activation
system.mem_ctrls.bytesPerActivate::128-255        30677     10.96%     34.93% # Bytes accessed per row activation
system.mem_ctrls.bytesPerActivate::256-383        18626      6.65%     41.58% # Bytes accessed per row activation
system.mem_ctrls.bytesPerActivate::384-511        16127      5.76%     47.34% # Bytes accessed per row activation
system.mem_ctrls.bytesPerActivate::512-639        10718      3.83%     51.17% # Bytes accessed per row activation
system.mem_ctrls.bytesPerActivate::640-767        12628      4.51%     55.68% # Bytes accessed per row activation
system.mem_ctrls.bytesPerActivate::768-895         8204      2.93%     58.61% # Bytes accessed per row activation
system.mem_ctrls.bytesPerActivate::896-1023         6439      2.30%     60.91% # Bytes accessed per row activation
system.mem_ctrls.bytesPerActivate::1024-1151       109456     39.09%    100.00% # Bytes accessed per row activation
system.mem_ctrls.bytesPerActivate::total       279998                       # Bytes accessed per row activation
system.mem_ctrls.rdPerTurnAround::samples          354                       # Reads before turning the bus around for writes
system.mem_ctrls.rdPerTurnAround::mean    7026.548023                       # Reads before turning the bus around for writes
system.mem_ctrls.rdPerTurnAround::stdev  11386.190867                       # Reads before turning the bus around for writes
system.mem_ctrls.rdPerTurnAround::0-4095          224     63.28%     63.28% # Reads before turning the bus around for writes
system.mem_ctrls.rdPerTurnAround::4096-8191           48     13.56%     76.84% # Reads before turning the bus around for writes
system.mem_ctrls.rdPerTurnAround::8192-12287           19      5.37%     82.20% # Reads before turning the bus around for writes
system.mem_ctrls.rdPerTurnAround::12288-16383           29      8.19%     90.40% # Reads before turning the bus around for writes
system.mem_ctrls.rdPerTurnAround::16384-20479            7      1.98%     92.37% # Reads before turning the bus around for writes
system.mem_ctrls.rdPerTurnAround::20480-24575            6      1.69%     94.07% # Reads before turning the bus around for writes
system.mem_ctrls.rdPerTurnAround::24576-28671            4      1.13%     95.20% # Reads before turning the bus around for writes
system.mem_ctrls.rdPerTurnAround::28672-32767            2      0.56%     95.76% # Reads before turning the bus around for writes
system.mem_ctrls.rdPerTurnAround::32768-36863            1      0.28%     96.05% # Reads before turning the bus around for writes
system.mem_ctrls.rdPerTurnAround::36864-40959            2      0.56%     96.61% # Reads before turning the bus around for writes
system.mem_ctrls.rdPerTurnAround::40960-45055            2      0.56%     97.18% # Reads before turning the bus around for writes
system.mem_ctrls.rdPerTurnAround::45056-49151            5      1.41%     98.59% # Reads before turning the bus around for writes
system.mem_ctrls.rdPerTurnAround::49152-53247            1      0.28%     98.87% # Reads before turning the bus around for writes
system.mem_ctrls.rdPerTurnAround::57344-61439            1      0.28%     99.15% # Reads before turning the bus around for writes
system.mem_ctrls.rdPerTurnAround::65536-69631            1      0.28%     99.44% # Reads before turning the bus around for writes
system.mem_ctrls.rdPerTurnAround::69632-73727            1      0.28%     99.72% # Reads before turning the bus around for writes
system.mem_ctrls.rdPerTurnAround::90112-94207            1      0.28%    100.00% # Reads before turning the bus around for writes
system.mem_ctrls.rdPerTurnAround::total           354                       # Reads before turning the bus around for writes
system.mem_ctrls.wrPerTurnAround::samples          354                       # Writes before turning the bus around for reads
system.mem_ctrls.wrPerTurnAround::mean      16.098870                       # Writes before turning the bus around for reads
system.mem_ctrls.wrPerTurnAround::gmean     16.092649                       # Writes before turning the bus around for reads
system.mem_ctrls.wrPerTurnAround::stdev      0.468678                       # Writes before turning the bus around for reads
system.mem_ctrls.wrPerTurnAround::16              338     95.48%     95.48% # Writes before turning the bus around for reads
system.mem_ctrls.wrPerTurnAround::18               14      3.95%     99.44% # Writes before turning the bus around for reads
system.mem_ctrls.wrPerTurnAround::19                1      0.28%     99.72% # Writes before turning the bus around for reads
system.mem_ctrls.wrPerTurnAround::20                1      0.28%    100.00% # Writes before turning the bus around for reads
system.mem_ctrls.wrPerTurnAround::total           354                       # Writes before turning the bus around for reads
system.mem_ctrls.bytesReadDRAM              159232640                       # Total number of bytes read from DRAM
system.mem_ctrls.bytesReadWrQ                 1890688                       # Total number of bytes read from write queue
system.mem_ctrls.bytesWritten                  364736                       # Total number of bytes written to DRAM
system.mem_ctrls.bytesReadSys                19105012                       # Total read bytes from the system interface side
system.mem_ctrls.bytesWrittenSys              1075285                       # Total written bytes from the system interface side
system.mem_ctrls.avgRdBW                      1178.46                       # Average DRAM read bandwidth in MiByte/s
system.mem_ctrls.avgWrBW                         2.70                       # Average achieved write bandwidth in MiByte/s
system.mem_ctrls.avgRdBWSys                    141.39                       # Average system read bandwidth in MiByte/s
system.mem_ctrls.avgWrBWSys                      7.96                       # Average system write bandwidth in MiByte/s
system.mem_ctrls.peakBW                      12800.00                       # Theoretical peak bandwidth in MiByte/s
system.mem_ctrls.busUtil                         9.23                       # Data bus utilization in percentage
system.mem_ctrls.busUtilRead                     9.21                       # Data bus utilization in percentage for reads
system.mem_ctrls.busUtilWrite                    0.02                       # Data bus utilization in percentage for writes
system.mem_ctrls.totGap                  135119205000                       # Total gap between requests
system.mem_ctrls.avgGap                      50660.16                       # Average gap between requests
system.mem_ctrls.masterReadBytes::.cpu.inst     17112240                       # Per-master bytes read from memory
system.mem_ctrls.masterReadBytes::.cpu.data      1759585                       # Per-master bytes read from memory
system.mem_ctrls.masterWriteBytes::.cpu.data        42926                       # Per-master bytes write to memory
system.mem_ctrls.masterReadRate::.cpu.inst 126645387.254026576877                       # Per-master bytes read from memory rate (Bytes/sec)
system.mem_ctrls.masterReadRate::.cpu.data 13022451.983572948724                       # Per-master bytes read from memory rate (Bytes/sec)
system.mem_ctrls.masterWriteRate::.cpu.data 317689.553983952152                       # Per-master bytes write to memory rate (Bytes/sec)
system.mem_ctrls.masterReadAccesses::.cpu.inst      2139030                       # Per-master read serviced memory accesses
system.mem_ctrls.masterReadAccesses::.cpu.data       378522                       # Per-master read serviced memory accesses
system.mem_ctrls.masterWriteAccesses::.cpu.data       149617                       # Per-master write serviced memory accesses
system.mem_ctrls.masterReadTotalLat::.cpu.inst  46687186500                       # Per-master read total memory access latency
system.mem_ctrls.masterReadTotalLat::.cpu.data   9347923000                       # Per-master read total memory access latency
system.mem_ctrls.masterWriteTotalLat::.cpu.data 3591757049500                       # Per-master write total memory access latency
system.mem_ctrls.masterReadAvgLat::.cpu.inst     21826.34                       # Per-master read average memory access latency
system.mem_ctrls.masterReadAvgLat::.cpu.data     24695.85                       # Per-master read average memory access latency
system.mem_ctrls.masterWriteAvgLat::.cpu.data  24006343.19                       # Per-master write average memory access latency
system.mem_ctrls.pageHitRate                    88.77                       # Row buffer hit rate, read and write combined
system.mem_ctrls.rank1.actEnergy            288691620                       # Energy for activate commands per rank (pJ)
system.mem_ctrls.rank1.preEnergy            153428055                       # Energy for precharge commands per rank (pJ)
system.mem_ctrls.rank1.readEnergy          2533629000                       # Energy for read commands per rank (pJ)
system.mem_ctrls.rank1.writeEnergy           11807640                       # Energy for write commands per rank (pJ)
system.mem_ctrls.rank1.refreshEnergy     10665847920.000002                       # Energy for refresh commands per rank (pJ)
system.mem_ctrls.rank1.actBackEnergy      38560720590                       # Energy for active background per rank (pJ)
system.mem_ctrls.rank1.preBackEnergy      19413637440                       # Energy for precharge background per rank (pJ)
system.mem_ctrls.rank1.actPowerDownEnergy            0                       # Energy for active power-down per rank (pJ)
system.mem_ctrls.rank1.prePowerDownEnergy            0                       # Energy for precharge power-down per rank (pJ)
system.mem_ctrls.rank1.selfRefreshEnergy            0                       # Energy for self refresh per rank (pJ)
system.mem_ctrls.rank1.totalEnergy        71627762265                       # Total energy per rank (pJ)
system.mem_ctrls.rank1.averagePower        530.107437                       # Core power per rank (mW)
system.mem_ctrls.rank1.totalIdleTime                0                       # Total Idle time Per DRAM Rank
system.mem_ctrls.rank1.memoryStateTime::IDLE  50090976750                       # Time in different power states
system.mem_ctrls.rank1.memoryStateTime::REF   4511780000                       # Time in different power states
system.mem_ctrls.rank1.memoryStateTime::SREF            0                       # Time in different power states
system.mem_ctrls.rank1.memoryStateTime::PRE_PDN            0                       # Time in different power states
system.mem_ctrls.rank1.memoryStateTime::ACT  80516574250                       # Time in different power states
system.mem_ctrls.rank1.memoryStateTime::ACT_PDN            0                       # Time in different power states
system.mem_ctrls.rank0.actEnergy           1710536940                       # Energy for activate commands per rank (pJ)
system.mem_ctrls.rank0.preEnergy            909164355                       # Energy for precharge commands per rank (pJ)
system.mem_ctrls.rank0.readEnergy         15230762400                       # Energy for read commands per rank (pJ)
system.mem_ctrls.rank0.writeEnergy           17941140                       # Energy for write commands per rank (pJ)
system.mem_ctrls.rank0.refreshEnergy     10665847920.000002                       # Energy for refresh commands per rank (pJ)
system.mem_ctrls.rank0.actBackEnergy      58617689070                       # Energy for active background per rank (pJ)
system.mem_ctrls.rank0.preBackEnergy       2523558720                       # Energy for precharge background per rank (pJ)
system.mem_ctrls.rank0.actPowerDownEnergy            0                       # Energy for active power-down per rank (pJ)
system.mem_ctrls.rank0.prePowerDownEnergy            0                       # Energy for precharge power-down per rank (pJ)
system.mem_ctrls.rank0.selfRefreshEnergy            0                       # Energy for self refresh per rank (pJ)
system.mem_ctrls.rank0.totalEnergy        89675500545                       # Total energy per rank (pJ)
system.mem_ctrls.rank0.averagePower        663.676321                       # Core power per rank (mW)
system.mem_ctrls.rank0.totalIdleTime                0                       # Total Idle time Per DRAM Rank
system.mem_ctrls.rank0.memoryStateTime::IDLE   5206264500                       # Time in different power states
system.mem_ctrls.rank0.memoryStateTime::REF   4511780000                       # Time in different power states
system.mem_ctrls.rank0.memoryStateTime::SREF            0                       # Time in different power states
system.mem_ctrls.rank0.memoryStateTime::PRE_PDN            0                       # Time in different power states
system.mem_ctrls.rank0.memoryStateTime::ACT 125401286500                       # Time in different power states
system.mem_ctrls.rank0.memoryStateTime::ACT_PDN            0                       # Time in different power states
system.mem_ctrls.power_state.pwrStateResidencyTicks::UNDEFINED 135119331000                       # Cumulative time (in ticks) in various power states
system.cpu_clk_domain.clock                       500                       # Clock period in ticks
system.cpu.dtb.walker.power_state.pwrStateResidencyTicks::UNDEFINED 135119331000                       # Cumulative time (in ticks) in various power states
system.cpu.interrupts.clk_domain.clock           8000                       # Clock period in ticks
system.cpu.itb.walker.power_state.pwrStateResidencyTicks::UNDEFINED 135119331000                       # Cumulative time (in ticks) in various power states
system.cpu.power_state.numTransitions               1                       # Number of power state transitions
system.cpu.power_state.pwrStateResidencyTicks::ON 135119331000                       # Cumulative time (in ticks) in various power states

---------- End Simulation Statistics   ----------
