
---------- Begin Simulation Statistics ----------
final_tick                                  991704000                       # Number of ticks from beginning of simulation (restored from checkpoints and never reset)
host_inst_rate                                 180961                       # Simulator instruction rate (inst/s)
host_mem_usage                                 847392                       # Number of bytes of host memory used
host_op_rate                                   190595                       # Simulator op (including micro ops) rate (op/s)
host_seconds                                     5.53                       # Real time elapsed on the host
host_tick_rate                              179452631                       # Simulator tick rate (ticks/s)
sim_freq                                 1000000000000                       # Frequency of simulated ticks
sim_insts                                     1000001                       # Number of instructions simulated
sim_ops                                       1053278                       # Number of ops (including micro ops) simulated
sim_seconds                                  0.000992                       # Number of seconds simulated
sim_ticks                                   991704000                       # Number of ticks simulated
system.cpu.branchPred.BTBCorrect                    0                       # Number of correct BTB predictions (this stat may not work properly.
system.cpu.branchPred.BTBHitPct             98.996708                       # BTB Hit Percentage
system.cpu.branchPred.BTBHits                   75780                       # Number of BTB hits
system.cpu.branchPred.BTBLookups                76548                       # Number of BTB lookups
system.cpu.branchPred.RASInCorrect                  7                       # Number of incorrect RAS predictions.
system.cpu.branchPred.condIncorrect              2239                       # Number of conditional branches incorrect
system.cpu.branchPred.condPredicted            124838                       # Number of conditional branches predicted
system.cpu.branchPred.indirectHits                 10                       # Number of indirect target hits.
system.cpu.branchPred.indirectLookups             104                       # Number of indirect predictor lookups.
system.cpu.branchPred.indirectMisses               94                       # Number of indirect misses.
system.cpu.branchPred.lookups                  171615                       # Number of BP lookups
system.cpu.branchPred.usedRAS                    1809                       # Number of times the RAS was used to get a target.
system.cpu.branchPredindirectMispredicted           71                       # Number of mispredicted indirect branches.
system.cpu.committedInsts                     1000001                       # Number of instructions committed
system.cpu.committedOps                       1053278                       # Number of ops (including micro ops) committed
system.cpu.cpi                               1.983406                       # CPI: cycles per instruction
system.cpu.discardedOps                         11790                       # Number of ops (including micro ops) which were discarded before commit
system.cpu.dtb.accesses                             0                       # DTB accesses
system.cpu.dtb.align_faults                         0                       # Number of TLB faults due to alignment restrictions
system.cpu.dtb.domain_faults                        0                       # Number of TLB faults due to domain restrictions
system.cpu.dtb.flush_entries                        0                       # Number of entries that have been flushed from TLB
system.cpu.dtb.flush_tlb                            0                       # Number of times complete TLB was flushed
system.cpu.dtb.flush_tlb_asid                       0                       # Number of times TLB was flushed by ASID
system.cpu.dtb.flush_tlb_mva                        0                       # Number of times TLB was flushed by MVA
system.cpu.dtb.flush_tlb_mva_asid                   0                       # Number of times TLB was flushed by MVA & ASID
system.cpu.dtb.hits                                 0                       # DTB hits
system.cpu.dtb.inst_accesses                        0                       # ITB inst accesses
system.cpu.dtb.inst_hits                            0                       # ITB inst hits
system.cpu.dtb.inst_misses                          0                       # ITB inst misses
system.cpu.dtb.misses                               0                       # DTB misses
system.cpu.dtb.perms_faults                         0                       # Number of TLB faults due to permissions restrictions
system.cpu.dtb.prefetch_faults                      0                       # Number of TLB faults due to prefetch
system.cpu.dtb.read_accesses                        0                       # DTB read accesses
system.cpu.dtb.read_hits                            0                       # DTB read hits
system.cpu.dtb.read_misses                          0                       # DTB read misses
system.cpu.dtb.stage2_mmu.stage2_tlb.accesses            0                       # DTB accesses
system.cpu.dtb.stage2_mmu.stage2_tlb.align_faults            0                       # Number of TLB faults due to alignment restrictions
system.cpu.dtb.stage2_mmu.stage2_tlb.domain_faults            0                       # Number of TLB faults due to domain restrictions
system.cpu.dtb.stage2_mmu.stage2_tlb.flush_entries            0                       # Number of entries that have been flushed from TLB
system.cpu.dtb.stage2_mmu.stage2_tlb.flush_tlb            0                       # Number of times complete TLB was flushed
system.cpu.dtb.stage2_mmu.stage2_tlb.flush_tlb_asid            0                       # Number of times TLB was flushed by ASID
system.cpu.dtb.stage2_mmu.stage2_tlb.flush_tlb_mva            0                       # Number of times TLB was flushed by MVA
system.cpu.dtb.stage2_mmu.stage2_tlb.flush_tlb_mva_asid            0                       # Number of times TLB was flushed by MVA & ASID
system.cpu.dtb.stage2_mmu.stage2_tlb.hits            0                       # DTB hits
system.cpu.dtb.stage2_mmu.stage2_tlb.inst_accesses            0                       # ITB inst accesses
system.cpu.dtb.stage2_mmu.stage2_tlb.inst_hits            0                       # ITB inst hits
system.cpu.dtb.stage2_mmu.stage2_tlb.inst_misses            0                       # ITB inst misses
system.cpu.dtb.stage2_mmu.stage2_tlb.misses            0                       # DTB misses
system.cpu.dtb.stage2_mmu.stage2_tlb.perms_faults            0                       # Number of TLB faults due to permissions restrictions
system.cpu.dtb.stage2_mmu.stage2_tlb.prefetch_faults            0                       # Number of TLB faults due to prefetch
system.cpu.dtb.stage2_mmu.stage2_tlb.read_accesses            0                       # DTB read accesses
system.cpu.dtb.stage2_mmu.stage2_tlb.read_hits            0                       # DTB read hits
system.cpu.dtb.stage2_mmu.stage2_tlb.read_misses            0                       # DTB read misses
system.cpu.dtb.stage2_mmu.stage2_tlb.walker.walkRequestOrigin_Requested::Data            0                       # Table walker requests started/completed, data/inst
system.cpu.dtb.stage2_mmu.stage2_tlb.walker.walkRequestOrigin_Requested::Inst            0                       # Table walker requests started/completed, data/inst
system.cpu.dtb.stage2_mmu.stage2_tlb.walker.walkRequestOrigin_Requested::total            0                       # Table walker requests started/completed, data/inst
system.cpu.dtb.stage2_mmu.stage2_tlb.walker.walkRequestOrigin_Completed::Data            0                       # Table walker requests started/completed, data/inst
system.cpu.dtb.stage2_mmu.stage2_tlb.walker.walkRequestOrigin_Completed::Inst            0                       # Table walker requests started/completed, data/inst
system.cpu.dtb.stage2_mmu.stage2_tlb.walker.walkRequestOrigin_Completed::total            0                       # Table walker requests started/completed, data/inst
system.cpu.dtb.stage2_mmu.stage2_tlb.walker.walkRequestOrigin::total            0                       # Table walker requests started/completed, data/inst
system.cpu.dtb.stage2_mmu.stage2_tlb.walker.walks            0                       # Table walker walks requested
system.cpu.dtb.stage2_mmu.stage2_tlb.write_accesses            0                       # DTB write accesses
system.cpu.dtb.stage2_mmu.stage2_tlb.write_hits            0                       # DTB write hits
system.cpu.dtb.stage2_mmu.stage2_tlb.write_misses            0                       # DTB write misses
system.cpu.dtb.walker.walkRequestOrigin_Requested::Data            0                       # Table walker requests started/completed, data/inst
system.cpu.dtb.walker.walkRequestOrigin_Requested::Inst            0                       # Table walker requests started/completed, data/inst
system.cpu.dtb.walker.walkRequestOrigin_Requested::total            0                       # Table walker requests started/completed, data/inst
system.cpu.dtb.walker.walkRequestOrigin_Completed::Data            0                       # Table walker requests started/completed, data/inst
system.cpu.dtb.walker.walkRequestOrigin_Completed::Inst            0                       # Table walker requests started/completed, data/inst
system.cpu.dtb.walker.walkRequestOrigin_Completed::total            0                       # Table walker requests started/completed, data/inst
system.cpu.dtb.walker.walkRequestOrigin::total            0                       # Table walker requests started/completed, data/inst
system.cpu.dtb.walker.walks                         0                       # Table walker walks requested
system.cpu.dtb.write_accesses                       0                       # DTB write accesses
system.cpu.dtb.write_hits                           0                       # DTB write hits
system.cpu.dtb.write_misses                         0                       # DTB write misses
system.cpu.fetch2.amo_instructions                  0                       # Number of memory atomic instructions successfully decoded
system.cpu.fetch2.fp_instructions                   0                       # Number of floating point instructions successfully decoded
system.cpu.fetch2.int_instructions             342602                       # Number of integer instructions successfully decoded
system.cpu.fetch2.load_instructions            339954                       # Number of memory load instructions successfully decoded
system.cpu.fetch2.store_instructions           168903                       # Number of memory store instructions successfully decoded
system.cpu.fetch2.vec_instructions                159                       # Number of SIMD instructions successfully decoded
system.cpu.idleCycles                          538424                       # Total number of cycles that the object has spent stopped
system.cpu.ipc                               0.504183                       # IPC: instructions per cycle
system.cpu.itb.accesses                             0                       # DTB accesses
system.cpu.itb.align_faults                         0                       # Number of TLB faults due to alignment restrictions
system.cpu.itb.domain_faults                        0                       # Number of TLB faults due to domain restrictions
system.cpu.itb.flush_entries                        0                       # Number of entries that have been flushed from TLB
system.cpu.itb.flush_tlb                            0                       # Number of times complete TLB was flushed
system.cpu.itb.flush_tlb_asid                       0                       # Number of times TLB was flushed by ASID
system.cpu.itb.flush_tlb_mva                        0                       # Number of times TLB was flushed by MVA
system.cpu.itb.flush_tlb_mva_asid                   0                       # Number of times TLB was flushed by MVA & ASID
system.cpu.itb.hits                                 0                       # DTB hits
system.cpu.itb.inst_accesses                        0                       # ITB inst accesses
system.cpu.itb.inst_hits                            0                       # ITB inst hits
system.cpu.itb.inst_misses                          0                       # ITB inst misses
system.cpu.itb.misses                               0                       # DTB misses
system.cpu.itb.perms_faults                         0                       # Number of TLB faults due to permissions restrictions
system.cpu.itb.prefetch_faults                      0                       # Number of TLB faults due to prefetch
system.cpu.itb.read_accesses                        0                       # DTB read accesses
system.cpu.itb.read_hits                            0                       # DTB read hits
system.cpu.itb.read_misses                          0                       # DTB read misses
system.cpu.itb.stage2_mmu.stage2_tlb.accesses            0                       # DTB accesses
system.cpu.itb.stage2_mmu.stage2_tlb.align_faults            0                       # Number of TLB faults due to alignment restrictions
system.cpu.itb.stage2_mmu.stage2_tlb.domain_faults            0                       # Number of TLB faults due to domain restrictions
system.cpu.itb.stage2_mmu.stage2_tlb.flush_entries            0                       # Number of entries that have been flushed from TLB
system.cpu.itb.stage2_mmu.stage2_tlb.flush_tlb            0                       # Number of times complete TLB was flushed
system.cpu.itb.stage2_mmu.stage2_tlb.flush_tlb_asid            0                       # Number of times TLB was flushed by ASID
system.cpu.itb.stage2_mmu.stage2_tlb.flush_tlb_mva            0                       # Number of times TLB was flushed by MVA
system.cpu.itb.stage2_mmu.stage2_tlb.flush_tlb_mva_asid            0                       # Number of times TLB was flushed by MVA & ASID
system.cpu.itb.stage2_mmu.stage2_tlb.hits            0                       # DTB hits
system.cpu.itb.stage2_mmu.stage2_tlb.inst_accesses            0                       # ITB inst accesses
system.cpu.itb.stage2_mmu.stage2_tlb.inst_hits            0                       # ITB inst hits
system.cpu.itb.stage2_mmu.stage2_tlb.inst_misses            0                       # ITB inst misses
system.cpu.itb.stage2_mmu.stage2_tlb.misses            0                       # DTB misses
system.cpu.itb.stage2_mmu.stage2_tlb.perms_faults            0                       # Number of TLB faults due to permissions restrictions
system.cpu.itb.stage2_mmu.stage2_tlb.prefetch_faults            0                       # Number of TLB faults due to prefetch
system.cpu.itb.stage2_mmu.stage2_tlb.read_accesses            0                       # DTB read accesses
system.cpu.itb.stage2_mmu.stage2_tlb.read_hits            0                       # DTB read hits
system.cpu.itb.stage2_mmu.stage2_tlb.read_misses            0                       # DTB read misses
system.cpu.itb.stage2_mmu.stage2_tlb.walker.walkRequestOrigin_Requested::Data            0                       # Table walker requests started/completed, data/inst
system.cpu.itb.stage2_mmu.stage2_tlb.walker.walkRequestOrigin_Requested::Inst            0                       # Table walker requests started/completed, data/inst
system.cpu.itb.stage2_mmu.stage2_tlb.walker.walkRequestOrigin_Requested::total            0                       # Table walker requests started/completed, data/inst
system.cpu.itb.stage2_mmu.stage2_tlb.walker.walkRequestOrigin_Completed::Data            0                       # Table walker requests started/completed, data/inst
system.cpu.itb.stage2_mmu.stage2_tlb.walker.walkRequestOrigin_Completed::Inst            0                       # Table walker requests started/completed, data/inst
system.cpu.itb.stage2_mmu.stage2_tlb.walker.walkRequestOrigin_Completed::total            0                       # Table walker requests started/completed, data/inst
system.cpu.itb.stage2_mmu.stage2_tlb.walker.walkRequestOrigin::total            0                       # Table walker requests started/completed, data/inst
system.cpu.itb.stage2_mmu.stage2_tlb.walker.walks            0                       # Table walker walks requested
system.cpu.itb.stage2_mmu.stage2_tlb.write_accesses            0                       # DTB write accesses
system.cpu.itb.stage2_mmu.stage2_tlb.write_hits            0                       # DTB write hits
system.cpu.itb.stage2_mmu.stage2_tlb.write_misses            0                       # DTB write misses
system.cpu.itb.walker.walkRequestOrigin_Requested::Data            0                       # Table walker requests started/completed, data/inst
system.cpu.itb.walker.walkRequestOrigin_Requested::Inst            0                       # Table walker requests started/completed, data/inst
system.cpu.itb.walker.walkRequestOrigin_Requested::total            0                       # Table walker requests started/completed, data/inst
system.cpu.itb.walker.walkRequestOrigin_Completed::Data            0                       # Table walker requests started/completed, data/inst
system.cpu.itb.walker.walkRequestOrigin_Completed::Inst            0                       # Table walker requests started/completed, data/inst
system.cpu.itb.walker.walkRequestOrigin_Completed::total            0                       # Table walker requests started/completed, data/inst
system.cpu.itb.walker.walkRequestOrigin::total            0                       # Table walker requests started/completed, data/inst
system.cpu.itb.walker.walks                         0                       # Table walker walks requested
system.cpu.itb.write_accesses                       0                       # DTB write accesses
system.cpu.itb.write_hits                           0                       # DTB write hits
system.cpu.itb.write_misses                         0                       # DTB write misses
system.cpu.numCycles                          1983408                       # number of cpu cycles simulated
system.cpu.numFetchSuspends                         0                       # Number of times Execute suspended instruction fetching
system.cpu.numWorkItemsCompleted                    0                       # number of work items this cpu completed
system.cpu.numWorkItemsStarted                      0                       # number of work items this cpu started
system.cpu.op_class_0::No_OpClass                   9      0.00%      0.00% # Class of committed instruction
system.cpu.op_class_0::IntAlu                  499270     47.40%     47.40% # Class of committed instruction
system.cpu.op_class_0::IntMult                     23      0.00%     47.40% # Class of committed instruction
system.cpu.op_class_0::IntDiv                       3      0.00%     47.40% # Class of committed instruction
system.cpu.op_class_0::FloatAdd                     0      0.00%     47.40% # Class of committed instruction
system.cpu.op_class_0::FloatCmp                     0      0.00%     47.40% # Class of committed instruction
system.cpu.op_class_0::FloatCvt                     0      0.00%     47.40% # Class of committed instruction
system.cpu.op_class_0::FloatMult                    0      0.00%     47.40% # Class of committed instruction
system.cpu.op_class_0::FloatMultAcc                 0      0.00%     47.40% # Class of committed instruction
system.cpu.op_class_0::FloatDiv                     0      0.00%     47.40% # Class of committed instruction
system.cpu.op_class_0::FloatMisc                    0      0.00%     47.40% # Class of committed instruction
system.cpu.op_class_0::FloatSqrt                    0      0.00%     47.40% # Class of committed instruction
system.cpu.op_class_0::SimdAdd                     29      0.00%     47.41% # Class of committed instruction
system.cpu.op_class_0::SimdAddAcc                   0      0.00%     47.41% # Class of committed instruction
system.cpu.op_class_0::SimdAlu                     34      0.00%     47.41% # Class of committed instruction
system.cpu.op_class_0::SimdCmp                     36      0.00%     47.41% # Class of committed instruction
system.cpu.op_class_0::SimdCvt                      0      0.00%     47.41% # Class of committed instruction
system.cpu.op_class_0::SimdMisc                    26      0.00%     47.42% # Class of committed instruction
system.cpu.op_class_0::SimdMult                     0      0.00%     47.42% # Class of committed instruction
system.cpu.op_class_0::SimdMultAcc                  0      0.00%     47.42% # Class of committed instruction
system.cpu.op_class_0::SimdShift                    0      0.00%     47.42% # Class of committed instruction
system.cpu.op_class_0::SimdShiftAcc                 0      0.00%     47.42% # Class of committed instruction
system.cpu.op_class_0::SimdDiv                      0      0.00%     47.42% # Class of committed instruction
system.cpu.op_class_0::SimdSqrt                     0      0.00%     47.42% # Class of committed instruction
system.cpu.op_class_0::SimdFloatAdd                 0      0.00%     47.42% # Class of committed instruction
system.cpu.op_class_0::SimdFloatAlu                 0      0.00%     47.42% # Class of committed instruction
system.cpu.op_class_0::SimdFloatCmp                 0      0.00%     47.42% # Class of committed instruction
system.cpu.op_class_0::SimdFloatCvt                 0      0.00%     47.42% # Class of committed instruction
system.cpu.op_class_0::SimdFloatDiv                 0      0.00%     47.42% # Class of committed instruction
system.cpu.op_class_0::SimdFloatMisc                0      0.00%     47.42% # Class of committed instruction
system.cpu.op_class_0::SimdFloatMult                0      0.00%     47.42% # Class of committed instruction
system.cpu.op_class_0::SimdFloatMultAcc             0      0.00%     47.42% # Class of committed instruction
system.cpu.op_class_0::SimdFloatSqrt                0      0.00%     47.42% # Class of committed instruction
system.cpu.op_class_0::SimdReduceAdd                0      0.00%     47.42% # Class of committed instruction
system.cpu.op_class_0::SimdReduceAlu                0      0.00%     47.42% # Class of committed instruction
system.cpu.op_class_0::SimdReduceCmp                0      0.00%     47.42% # Class of committed instruction
system.cpu.op_class_0::SimdFloatReduceAdd            0      0.00%     47.42% # Class of committed instruction
system.cpu.op_class_0::SimdFloatReduceCmp            0      0.00%     47.42% # Class of committed instruction
system.cpu.op_class_0::SimdAes                      0      0.00%     47.42% # Class of committed instruction
system.cpu.op_class_0::SimdAesMix                   0      0.00%     47.42% # Class of committed instruction
system.cpu.op_class_0::SimdSha1Hash                 0      0.00%     47.42% # Class of committed instruction
system.cpu.op_class_0::SimdSha1Hash2                0      0.00%     47.42% # Class of committed instruction
system.cpu.op_class_0::SimdSha256Hash               0      0.00%     47.42% # Class of committed instruction
system.cpu.op_class_0::SimdSha256Hash2              0      0.00%     47.42% # Class of committed instruction
system.cpu.op_class_0::SimdShaSigma2                0      0.00%     47.42% # Class of committed instruction
system.cpu.op_class_0::SimdShaSigma3                0      0.00%     47.42% # Class of committed instruction
system.cpu.op_class_0::SimdPredAlu                  0      0.00%     47.42% # Class of committed instruction
system.cpu.op_class_0::MemRead                 381270     36.20%     83.62% # Class of committed instruction
system.cpu.op_class_0::MemWrite                172578     16.38%    100.00% # Class of committed instruction
system.cpu.op_class_0::FloatMemRead                 0      0.00%    100.00% # Class of committed instruction
system.cpu.op_class_0::FloatMemWrite                0      0.00%    100.00% # Class of committed instruction
system.cpu.op_class_0::IprAccess                    0      0.00%    100.00% # Class of committed instruction
system.cpu.op_class_0::InstPrefetch                 0      0.00%    100.00% # Class of committed instruction
system.cpu.op_class_0::total                  1053278                       # Class of committed instruction
system.cpu.tickCycles                         1444984                       # Number of cycles that the object actually ticked
system.cpu.workload.numSyscalls                    23                       # Number of system calls
system.membus.snoop_filter.hit_multi_requests            0                       # Number of requests hitting in the snoop filter with multiple (>1) holders of the requested data.
system.membus.snoop_filter.hit_multi_snoops            0                       # Number of snoops hitting in the snoop filter with multiple (>1) holders of the requested data.
system.membus.snoop_filter.hit_single_requests         1171                       # Number of requests hitting in the snoop filter with a single holder of the requested data.
system.membus.snoop_filter.hit_single_snoops            0                       # Number of snoops hitting in the snoop filter with a single holder of the requested data.
system.membus.snoop_filter.tot_requests          6812                       # Total number of requests made to the snoop filter.
system.membus.snoop_filter.tot_snoops               0                       # Total number of snoops made to the snoop filter.
system.tol2bus.snoop_filter.hit_multi_requests            1                       # Number of requests hitting in the snoop filter with multiple (>1) holders of the requested data.
system.tol2bus.snoop_filter.hit_multi_snoops            0                       # Number of snoops hitting in the snoop filter with multiple (>1) holders of the requested data.
system.tol2bus.snoop_filter.hit_single_requests         4520                       # Number of requests hitting in the snoop filter with a single holder of the requested data.
system.tol2bus.snoop_filter.hit_single_snoops           14                       # Number of snoops hitting in the snoop filter with a single holder of the requested data.
system.tol2bus.snoop_filter.tot_requests        10315                       # Total number of requests made to the snoop filter.
system.tol2bus.snoop_filter.tot_snoops             14                       # Total number of snoops made to the snoop filter.
system.membus.trans_dist::ReadResp               2074                       # Transaction distribution
system.membus.trans_dist::WritebackDirty         1156                       # Transaction distribution
system.membus.trans_dist::CleanEvict               15                       # Transaction distribution
system.membus.trans_dist::ReadExReq              3560                       # Transaction distribution
system.membus.trans_dist::ReadExResp             3560                       # Transaction distribution
system.membus.trans_dist::ReadSharedReq          2074                       # Transaction distribution
system.membus.trans_dist::InvalidateReq             7                       # Transaction distribution
system.membus.pkt_count_system.l2.mem_side::system.mem_ctrls.port        12446                       # Packet count per connected master and slave (bytes)
system.membus.pkt_count::total                  12446                       # Packet count per connected master and slave (bytes)
system.membus.pkt_size_system.l2.mem_side::system.mem_ctrls.port       434560                       # Cumulative packet size per connected master and slave (bytes)
system.membus.pkt_size::total                  434560                       # Cumulative packet size per connected master and slave (bytes)
system.membus.snoops                                0                       # Total snoops (count)
system.membus.snoopTraffic                          0                       # Total snoop traffic (bytes)
system.membus.snoop_fanout::samples              5641                       # Request fanout histogram
system.membus.snoop_fanout::mean                    0                       # Request fanout histogram
system.membus.snoop_fanout::stdev                   0                       # Request fanout histogram
system.membus.snoop_fanout::underflows              0      0.00%      0.00% # Request fanout histogram
system.membus.snoop_fanout::0                    5641    100.00%    100.00% # Request fanout histogram
system.membus.snoop_fanout::1                       0      0.00%    100.00% # Request fanout histogram
system.membus.snoop_fanout::overflows               0      0.00%    100.00% # Request fanout histogram
system.membus.snoop_fanout::min_value               0                       # Request fanout histogram
system.membus.snoop_fanout::max_value               0                       # Request fanout histogram
system.membus.snoop_fanout::total                5641                       # Request fanout histogram
system.membus.reqLayer0.occupancy            11820000                       # Layer occupancy (ticks)
system.membus.reqLayer0.utilization               1.2                       # Layer utilization (%)
system.membus.respLayer1.occupancy           29513000                       # Layer occupancy (ticks)
system.membus.respLayer1.utilization              3.0                       # Layer utilization (%)
system.membus.power_state.pwrStateResidencyTicks::UNDEFINED    991704000                       # Cumulative time (in ticks) in various power states
system.tol2bus.trans_dist::ReadResp              2201                       # Transaction distribution
system.tol2bus.trans_dist::WritebackDirty         4377                       # Transaction distribution
system.tol2bus.trans_dist::WritebackClean          403                       # Transaction distribution
system.tol2bus.trans_dist::CleanEvict             925                       # Transaction distribution
system.tol2bus.trans_dist::ReadExReq             3587                       # Transaction distribution
system.tol2bus.trans_dist::ReadExResp            3587                       # Transaction distribution
system.tol2bus.trans_dist::ReadCleanReq           654                       # Transaction distribution
system.tol2bus.trans_dist::ReadSharedReq         1547                       # Transaction distribution
system.tol2bus.trans_dist::InvalidateReq            7                       # Transaction distribution
system.tol2bus.trans_dist::InvalidateResp            7                       # Transaction distribution
system.tol2bus.pkt_count_system.cpu.icache.mem_side::system.l2.cpu_side         1711                       # Packet count per connected master and slave (bytes)
system.tol2bus.pkt_count_system.cpu.dcache.mem_side::system.l2.cpu_side        14399                       # Packet count per connected master and slave (bytes)
system.tol2bus.pkt_count::total                 16110                       # Packet count per connected master and slave (bytes)
system.tol2bus.pkt_size_system.cpu.icache.mem_side::system.l2.cpu_side        67648                       # Cumulative packet size per connected master and slave (bytes)
system.tol2bus.pkt_size_system.cpu.dcache.mem_side::system.l2.cpu_side       534720                       # Cumulative packet size per connected master and slave (bytes)
system.tol2bus.pkt_size::total                 602368                       # Cumulative packet size per connected master and slave (bytes)
system.tol2bus.snoops                            1185                       # Total snoops (count)
system.tol2bus.snoopTraffic                     73984                       # Total snoop traffic (bytes)
system.tol2bus.snoop_fanout::samples             6980                       # Request fanout histogram
system.tol2bus.snoop_fanout::mean            0.002149                       # Request fanout histogram
system.tol2bus.snoop_fanout::stdev           0.046311                       # Request fanout histogram
system.tol2bus.snoop_fanout::underflows             0      0.00%      0.00% # Request fanout histogram
system.tol2bus.snoop_fanout::0                   6965     99.79%     99.79% # Request fanout histogram
system.tol2bus.snoop_fanout::1                     15      0.21%    100.00% # Request fanout histogram
system.tol2bus.snoop_fanout::2                      0      0.00%    100.00% # Request fanout histogram
system.tol2bus.snoop_fanout::overflows              0      0.00%    100.00% # Request fanout histogram
system.tol2bus.snoop_fanout::min_value              0                       # Request fanout histogram
system.tol2bus.snoop_fanout::max_value              1                       # Request fanout histogram
system.tol2bus.snoop_fanout::total               6980                       # Request fanout histogram
system.tol2bus.reqLayer0.occupancy            8781500                       # Layer occupancy (ticks)
system.tol2bus.reqLayer0.utilization              0.9                       # Layer utilization (%)
system.tol2bus.respLayer1.occupancy           7704500                       # Layer occupancy (ticks)
system.tol2bus.respLayer1.utilization             0.8                       # Layer utilization (%)
system.tol2bus.respLayer0.occupancy            981000                       # Layer occupancy (ticks)
system.tol2bus.respLayer0.utilization             0.1                       # Layer utilization (%)
system.tol2bus.power_state.pwrStateResidencyTicks::UNDEFINED    991704000                       # Cumulative time (in ticks) in various power states
system.voltage_domain.voltage                       1                       # Voltage in Volts
system.clk_domain.clock                          1000                       # Clock period in ticks
system.l2.demand_hits::.cpu.inst                   85                       # number of demand (read+write) hits
system.l2.demand_hits::.cpu.data                   69                       # number of demand (read+write) hits
system.l2.demand_hits::total                      154                       # number of demand (read+write) hits
system.l2.overall_hits::.cpu.inst                  85                       # number of overall hits
system.l2.overall_hits::.cpu.data                  69                       # number of overall hits
system.l2.overall_hits::total                     154                       # number of overall hits
system.l2.demand_misses::.cpu.inst                569                       # number of demand (read+write) misses
system.l2.demand_misses::.cpu.data               5065                       # number of demand (read+write) misses
system.l2.demand_misses::total                   5634                       # number of demand (read+write) misses
system.l2.overall_misses::.cpu.inst               569                       # number of overall misses
system.l2.overall_misses::.cpu.data              5065                       # number of overall misses
system.l2.overall_misses::total                  5634                       # number of overall misses
system.l2.demand_miss_latency::.cpu.inst     43601000                       # number of demand (read+write) miss cycles
system.l2.demand_miss_latency::.cpu.data    400143000                       # number of demand (read+write) miss cycles
system.l2.demand_miss_latency::total        443744000                       # number of demand (read+write) miss cycles
system.l2.overall_miss_latency::.cpu.inst     43601000                       # number of overall miss cycles
system.l2.overall_miss_latency::.cpu.data    400143000                       # number of overall miss cycles
system.l2.overall_miss_latency::total       443744000                       # number of overall miss cycles
system.l2.demand_accesses::.cpu.inst              654                       # number of demand (read+write) accesses
system.l2.demand_accesses::.cpu.data             5134                       # number of demand (read+write) accesses
system.l2.demand_accesses::total                 5788                       # number of demand (read+write) accesses
system.l2.overall_accesses::.cpu.inst             654                       # number of overall (read+write) accesses
system.l2.overall_accesses::.cpu.data            5134                       # number of overall (read+write) accesses
system.l2.overall_accesses::total                5788                       # number of overall (read+write) accesses
system.l2.demand_miss_rate::.cpu.inst        0.870031                       # miss rate for demand accesses
system.l2.demand_miss_rate::.cpu.data        0.986560                       # miss rate for demand accesses
system.l2.demand_miss_rate::total            0.973393                       # miss rate for demand accesses
system.l2.overall_miss_rate::.cpu.inst       0.870031                       # miss rate for overall accesses
system.l2.overall_miss_rate::.cpu.data       0.986560                       # miss rate for overall accesses
system.l2.overall_miss_rate::total           0.973393                       # miss rate for overall accesses
system.l2.demand_avg_miss_latency::.cpu.inst 76627.416520                       # average overall miss latency
system.l2.demand_avg_miss_latency::.cpu.data 79001.579467                       # average overall miss latency
system.l2.demand_avg_miss_latency::total 78761.803337                       # average overall miss latency
system.l2.overall_avg_miss_latency::.cpu.inst 76627.416520                       # average overall miss latency
system.l2.overall_avg_miss_latency::.cpu.data 79001.579467                       # average overall miss latency
system.l2.overall_avg_miss_latency::total 78761.803337                       # average overall miss latency
system.l2.blocked_cycles::no_mshrs                  0                       # number of cycles access was blocked
system.l2.blocked_cycles::no_targets                0                       # number of cycles access was blocked
system.l2.blocked::no_mshrs                         0                       # number of cycles access was blocked
system.l2.blocked::no_targets                       0                       # number of cycles access was blocked
system.l2.avg_blocked_cycles::no_mshrs            nan                       # average number of cycles each access was blocked
system.l2.avg_blocked_cycles::no_targets          nan                       # average number of cycles each access was blocked
system.l2.writebacks::.writebacks                1156                       # number of writebacks
system.l2.writebacks::total                      1156                       # number of writebacks
system.l2.demand_mshr_misses::.cpu.inst           569                       # number of demand (read+write) MSHR misses
system.l2.demand_mshr_misses::.cpu.data          5065                       # number of demand (read+write) MSHR misses
system.l2.demand_mshr_misses::total              5634                       # number of demand (read+write) MSHR misses
system.l2.overall_mshr_misses::.cpu.inst          569                       # number of overall MSHR misses
system.l2.overall_mshr_misses::.cpu.data         5065                       # number of overall MSHR misses
system.l2.overall_mshr_misses::total             5634                       # number of overall MSHR misses
system.l2.demand_mshr_miss_latency::.cpu.inst     37911000                       # number of demand (read+write) MSHR miss cycles
system.l2.demand_mshr_miss_latency::.cpu.data    349493000                       # number of demand (read+write) MSHR miss cycles
system.l2.demand_mshr_miss_latency::total    387404000                       # number of demand (read+write) MSHR miss cycles
system.l2.overall_mshr_miss_latency::.cpu.inst     37911000                       # number of overall MSHR miss cycles
system.l2.overall_mshr_miss_latency::.cpu.data    349493000                       # number of overall MSHR miss cycles
system.l2.overall_mshr_miss_latency::total    387404000                       # number of overall MSHR miss cycles
system.l2.demand_mshr_miss_rate::.cpu.inst     0.870031                       # mshr miss rate for demand accesses
system.l2.demand_mshr_miss_rate::.cpu.data     0.986560                       # mshr miss rate for demand accesses
system.l2.demand_mshr_miss_rate::total       0.973393                       # mshr miss rate for demand accesses
system.l2.overall_mshr_miss_rate::.cpu.inst     0.870031                       # mshr miss rate for overall accesses
system.l2.overall_mshr_miss_rate::.cpu.data     0.986560                       # mshr miss rate for overall accesses
system.l2.overall_mshr_miss_rate::total      0.973393                       # mshr miss rate for overall accesses
system.l2.demand_avg_mshr_miss_latency::.cpu.inst 66627.416520                       # average overall mshr miss latency
system.l2.demand_avg_mshr_miss_latency::.cpu.data 69001.579467                       # average overall mshr miss latency
system.l2.demand_avg_mshr_miss_latency::total 68761.803337                       # average overall mshr miss latency
system.l2.overall_avg_mshr_miss_latency::.cpu.inst 66627.416520                       # average overall mshr miss latency
system.l2.overall_avg_mshr_miss_latency::.cpu.data 69001.579467                       # average overall mshr miss latency
system.l2.overall_avg_mshr_miss_latency::total 68761.803337                       # average overall mshr miss latency
system.l2.replacements                           1185                       # number of replacements
system.l2.WritebackDirty_hits::.writebacks         3221                       # number of WritebackDirty hits
system.l2.WritebackDirty_hits::total             3221                       # number of WritebackDirty hits
system.l2.WritebackDirty_accesses::.writebacks         3221                       # number of WritebackDirty accesses(hits+misses)
system.l2.WritebackDirty_accesses::total         3221                       # number of WritebackDirty accesses(hits+misses)
system.l2.WritebackClean_hits::.writebacks          403                       # number of WritebackClean hits
system.l2.WritebackClean_hits::total              403                       # number of WritebackClean hits
system.l2.WritebackClean_accesses::.writebacks          403                       # number of WritebackClean accesses(hits+misses)
system.l2.WritebackClean_accesses::total          403                       # number of WritebackClean accesses(hits+misses)
system.l2.ReadExReq_hits::.cpu.data                27                       # number of ReadExReq hits
system.l2.ReadExReq_hits::total                    27                       # number of ReadExReq hits
system.l2.ReadExReq_misses::.cpu.data            3560                       # number of ReadExReq misses
system.l2.ReadExReq_misses::total                3560                       # number of ReadExReq misses
system.l2.ReadExReq_miss_latency::.cpu.data    287924000                       # number of ReadExReq miss cycles
system.l2.ReadExReq_miss_latency::total     287924000                       # number of ReadExReq miss cycles
system.l2.ReadExReq_accesses::.cpu.data          3587                       # number of ReadExReq accesses(hits+misses)
system.l2.ReadExReq_accesses::total              3587                       # number of ReadExReq accesses(hits+misses)
system.l2.ReadExReq_miss_rate::.cpu.data     0.992473                       # miss rate for ReadExReq accesses
system.l2.ReadExReq_miss_rate::total         0.992473                       # miss rate for ReadExReq accesses
system.l2.ReadExReq_avg_miss_latency::.cpu.data 80877.528090                       # average ReadExReq miss latency
system.l2.ReadExReq_avg_miss_latency::total 80877.528090                       # average ReadExReq miss latency
system.l2.ReadExReq_mshr_misses::.cpu.data         3560                       # number of ReadExReq MSHR misses
system.l2.ReadExReq_mshr_misses::total           3560                       # number of ReadExReq MSHR misses
system.l2.ReadExReq_mshr_miss_latency::.cpu.data    252324000                       # number of ReadExReq MSHR miss cycles
system.l2.ReadExReq_mshr_miss_latency::total    252324000                       # number of ReadExReq MSHR miss cycles
system.l2.ReadExReq_mshr_miss_rate::.cpu.data     0.992473                       # mshr miss rate for ReadExReq accesses
system.l2.ReadExReq_mshr_miss_rate::total     0.992473                       # mshr miss rate for ReadExReq accesses
system.l2.ReadExReq_avg_mshr_miss_latency::.cpu.data 70877.528090                       # average ReadExReq mshr miss latency
system.l2.ReadExReq_avg_mshr_miss_latency::total 70877.528090                       # average ReadExReq mshr miss latency
system.l2.ReadCleanReq_hits::.cpu.inst             85                       # number of ReadCleanReq hits
system.l2.ReadCleanReq_hits::total                 85                       # number of ReadCleanReq hits
system.l2.ReadCleanReq_misses::.cpu.inst          569                       # number of ReadCleanReq misses
system.l2.ReadCleanReq_misses::total              569                       # number of ReadCleanReq misses
system.l2.ReadCleanReq_miss_latency::.cpu.inst     43601000                       # number of ReadCleanReq miss cycles
system.l2.ReadCleanReq_miss_latency::total     43601000                       # number of ReadCleanReq miss cycles
system.l2.ReadCleanReq_accesses::.cpu.inst          654                       # number of ReadCleanReq accesses(hits+misses)
system.l2.ReadCleanReq_accesses::total            654                       # number of ReadCleanReq accesses(hits+misses)
system.l2.ReadCleanReq_miss_rate::.cpu.inst     0.870031                       # miss rate for ReadCleanReq accesses
system.l2.ReadCleanReq_miss_rate::total      0.870031                       # miss rate for ReadCleanReq accesses
system.l2.ReadCleanReq_avg_miss_latency::.cpu.inst 76627.416520                       # average ReadCleanReq miss latency
system.l2.ReadCleanReq_avg_miss_latency::total 76627.416520                       # average ReadCleanReq miss latency
system.l2.ReadCleanReq_mshr_misses::.cpu.inst          569                       # number of ReadCleanReq MSHR misses
system.l2.ReadCleanReq_mshr_misses::total          569                       # number of ReadCleanReq MSHR misses
system.l2.ReadCleanReq_mshr_miss_latency::.cpu.inst     37911000                       # number of ReadCleanReq MSHR miss cycles
system.l2.ReadCleanReq_mshr_miss_latency::total     37911000                       # number of ReadCleanReq MSHR miss cycles
system.l2.ReadCleanReq_mshr_miss_rate::.cpu.inst     0.870031                       # mshr miss rate for ReadCleanReq accesses
system.l2.ReadCleanReq_mshr_miss_rate::total     0.870031                       # mshr miss rate for ReadCleanReq accesses
system.l2.ReadCleanReq_avg_mshr_miss_latency::.cpu.inst 66627.416520                       # average ReadCleanReq mshr miss latency
system.l2.ReadCleanReq_avg_mshr_miss_latency::total 66627.416520                       # average ReadCleanReq mshr miss latency
system.l2.ReadSharedReq_hits::.cpu.data            42                       # number of ReadSharedReq hits
system.l2.ReadSharedReq_hits::total                42                       # number of ReadSharedReq hits
system.l2.ReadSharedReq_misses::.cpu.data         1505                       # number of ReadSharedReq misses
system.l2.ReadSharedReq_misses::total            1505                       # number of ReadSharedReq misses
system.l2.ReadSharedReq_miss_latency::.cpu.data    112219000                       # number of ReadSharedReq miss cycles
system.l2.ReadSharedReq_miss_latency::total    112219000                       # number of ReadSharedReq miss cycles
system.l2.ReadSharedReq_accesses::.cpu.data         1547                       # number of ReadSharedReq accesses(hits+misses)
system.l2.ReadSharedReq_accesses::total          1547                       # number of ReadSharedReq accesses(hits+misses)
system.l2.ReadSharedReq_miss_rate::.cpu.data     0.972851                       # miss rate for ReadSharedReq accesses
system.l2.ReadSharedReq_miss_rate::total     0.972851                       # miss rate for ReadSharedReq accesses
system.l2.ReadSharedReq_avg_miss_latency::.cpu.data 74564.119601                       # average ReadSharedReq miss latency
system.l2.ReadSharedReq_avg_miss_latency::total 74564.119601                       # average ReadSharedReq miss latency
system.l2.ReadSharedReq_mshr_misses::.cpu.data         1505                       # number of ReadSharedReq MSHR misses
system.l2.ReadSharedReq_mshr_misses::total         1505                       # number of ReadSharedReq MSHR misses
system.l2.ReadSharedReq_mshr_miss_latency::.cpu.data     97169000                       # number of ReadSharedReq MSHR miss cycles
system.l2.ReadSharedReq_mshr_miss_latency::total     97169000                       # number of ReadSharedReq MSHR miss cycles
system.l2.ReadSharedReq_mshr_miss_rate::.cpu.data     0.972851                       # mshr miss rate for ReadSharedReq accesses
system.l2.ReadSharedReq_mshr_miss_rate::total     0.972851                       # mshr miss rate for ReadSharedReq accesses
system.l2.ReadSharedReq_avg_mshr_miss_latency::.cpu.data 64564.119601                       # average ReadSharedReq mshr miss latency
system.l2.ReadSharedReq_avg_mshr_miss_latency::total 64564.119601                       # average ReadSharedReq mshr miss latency
system.l2.InvalidateReq_misses::.cpu.data            7                       # number of InvalidateReq misses
system.l2.InvalidateReq_misses::total               7                       # number of InvalidateReq misses
system.l2.InvalidateReq_accesses::.cpu.data            7                       # number of InvalidateReq accesses(hits+misses)
system.l2.InvalidateReq_accesses::total             7                       # number of InvalidateReq accesses(hits+misses)
system.l2.InvalidateReq_miss_rate::.cpu.data            1                       # miss rate for InvalidateReq accesses
system.l2.InvalidateReq_miss_rate::total            1                       # miss rate for InvalidateReq accesses
system.l2.InvalidateReq_mshr_misses::.cpu.data            7                       # number of InvalidateReq MSHR misses
system.l2.InvalidateReq_mshr_misses::total            7                       # number of InvalidateReq MSHR misses
system.l2.InvalidateReq_mshr_miss_latency::.cpu.data       134000                       # number of InvalidateReq MSHR miss cycles
system.l2.InvalidateReq_mshr_miss_latency::total       134000                       # number of InvalidateReq MSHR miss cycles
system.l2.InvalidateReq_mshr_miss_rate::.cpu.data            1                       # mshr miss rate for InvalidateReq accesses
system.l2.InvalidateReq_mshr_miss_rate::total            1                       # mshr miss rate for InvalidateReq accesses
system.l2.InvalidateReq_avg_mshr_miss_latency::.cpu.data 19142.857143                       # average InvalidateReq mshr miss latency
system.l2.InvalidateReq_avg_mshr_miss_latency::total 19142.857143                       # average InvalidateReq mshr miss latency
system.l2.power_state.pwrStateResidencyTicks::UNDEFINED    991704000                       # Cumulative time (in ticks) in various power states
system.l2.tags.tagsinuse                  3594.340612                       # Cycle average of tags in use
system.l2.tags.total_refs                       10307                       # Total number of references to valid blocks.
system.l2.tags.sampled_refs                      5650                       # Sample count of references to valid blocks.
system.l2.tags.avg_refs                      1.824248                       # Average number of references to valid blocks.
system.l2.tags.warmup_cycle                     77000                       # Cycle when the warmup percentage was hit.
system.l2.tags.occ_blocks::.writebacks      11.624448                       # Average occupied blocks per requestor
system.l2.tags.occ_blocks::.cpu.inst       496.354958                       # Average occupied blocks per requestor
system.l2.tags.occ_blocks::.cpu.data      3086.361206                       # Average occupied blocks per requestor
system.l2.tags.occ_percent::.writebacks      0.000355                       # Average percentage of cache occupancy
system.l2.tags.occ_percent::.cpu.inst        0.015148                       # Average percentage of cache occupancy
system.l2.tags.occ_percent::.cpu.data        0.094188                       # Average percentage of cache occupancy
system.l2.tags.occ_percent::total            0.109691                       # Average percentage of cache occupancy
system.l2.tags.occ_task_id_blocks::1024          4465                       # Occupied blocks per task id
system.l2.tags.age_task_id_blocks_1024::0            5                       # Occupied blocks per task id
system.l2.tags.age_task_id_blocks_1024::1          113                       # Occupied blocks per task id
system.l2.tags.age_task_id_blocks_1024::2         4347                       # Occupied blocks per task id
system.l2.tags.occ_task_id_percent::1024     0.136261                       # Percentage of cache occupancy per task id
system.l2.tags.tag_accesses                     88162                       # Number of tag accesses
system.l2.tags.data_accesses                    88162                       # Number of data accesses
system.l2.tags.power_state.pwrStateResidencyTicks::UNDEFINED    991704000                       # Cumulative time (in ticks) in various power states
system.cpu_voltage_domain.voltage                   1                       # Voltage in Volts
system.mem_ctrls.bytes_read::.cpu.inst          36416                       # Number of bytes read from this memory
system.mem_ctrls.bytes_read::.cpu.data         324160                       # Number of bytes read from this memory
system.mem_ctrls.bytes_read::total             360576                       # Number of bytes read from this memory
system.mem_ctrls.bytes_inst_read::.cpu.inst        36416                       # Number of instructions bytes read from this memory
system.mem_ctrls.bytes_inst_read::total         36416                       # Number of instructions bytes read from this memory
system.mem_ctrls.bytes_written::.writebacks        73984                       # Number of bytes written to this memory
system.mem_ctrls.bytes_written::total           73984                       # Number of bytes written to this memory
system.mem_ctrls.num_reads::.cpu.inst             569                       # Number of read requests responded to by this memory
system.mem_ctrls.num_reads::.cpu.data            5065                       # Number of read requests responded to by this memory
system.mem_ctrls.num_reads::total                5634                       # Number of read requests responded to by this memory
system.mem_ctrls.num_writes::.writebacks         1156                       # Number of write requests responded to by this memory
system.mem_ctrls.num_writes::total               1156                       # Number of write requests responded to by this memory
system.mem_ctrls.bw_read::.cpu.inst          36720634                       # Total read bandwidth from this memory (bytes/s)
system.mem_ctrls.bw_read::.cpu.data         326871728                       # Total read bandwidth from this memory (bytes/s)
system.mem_ctrls.bw_read::total             363592362                       # Total read bandwidth from this memory (bytes/s)
system.mem_ctrls.bw_inst_read::.cpu.inst     36720634                       # Instruction read bandwidth from this memory (bytes/s)
system.mem_ctrls.bw_inst_read::total         36720634                       # Instruction read bandwidth from this memory (bytes/s)
system.mem_ctrls.bw_write::.writebacks       74602906                       # Write bandwidth from this memory (bytes/s)
system.mem_ctrls.bw_write::total             74602906                       # Write bandwidth from this memory (bytes/s)
system.mem_ctrls.bw_total::.writebacks       74602906                       # Total bandwidth to/from this memory (bytes/s)
system.mem_ctrls.bw_total::.cpu.inst         36720634                       # Total bandwidth to/from this memory (bytes/s)
system.mem_ctrls.bw_total::.cpu.data        326871728                       # Total bandwidth to/from this memory (bytes/s)
system.mem_ctrls.bw_total::total            438195268                       # Total bandwidth to/from this memory (bytes/s)
system.mem_ctrls.avgPriority_.writebacks::samples      1156.00                       # Average QoS priority value for accepted requests
system.mem_ctrls.avgPriority_.cpu.inst::samples       569.00                       # Average QoS priority value for accepted requests
system.mem_ctrls.avgPriority_.cpu.data::samples      5065.00                       # Average QoS priority value for accepted requests
system.mem_ctrls.priorityMinLatency      0.000000018750                       # per QoS priority minimum request to response latency (s)
system.mem_ctrls.priorityMaxLatency      0.001123524500                       # per QoS priority maximum request to response latency (s)
system.mem_ctrls.numReadWriteTurnArounds           70                       # Number of turnarounds from READ to WRITE
system.mem_ctrls.numWriteReadTurnArounds           70                       # Number of turnarounds from WRITE to READ
system.mem_ctrls.numStayReadState               12337                       # Number of times bus staying in READ state
system.mem_ctrls.numStayWriteState               1062                       # Number of times bus staying in WRITE state
system.mem_ctrls.readReqs                        5634                       # Number of read requests accepted
system.mem_ctrls.writeReqs                       1156                       # Number of write requests accepted
system.mem_ctrls.readBursts                      5634                       # Number of DRAM read bursts, including those serviced by the write queue
system.mem_ctrls.writeBursts                     1156                       # Number of DRAM write bursts, including those merged in the write queue
system.mem_ctrls.servicedByWrQ                      0                       # Number of DRAM read bursts serviced by the write queue
system.mem_ctrls.mergedWrBursts                     0                       # Number of DRAM write bursts merged with an existing one
system.mem_ctrls.neitherReadNorWriteReqs            0                       # Number of requests that are neither read nor write
system.mem_ctrls.perBankRdBursts::0               333                       # Per bank write bursts
system.mem_ctrls.perBankRdBursts::1               349                       # Per bank write bursts
system.mem_ctrls.perBankRdBursts::2               366                       # Per bank write bursts
system.mem_ctrls.perBankRdBursts::3               340                       # Per bank write bursts
system.mem_ctrls.perBankRdBursts::4               297                       # Per bank write bursts
system.mem_ctrls.perBankRdBursts::5               359                       # Per bank write bursts
system.mem_ctrls.perBankRdBursts::6               411                       # Per bank write bursts
system.mem_ctrls.perBankRdBursts::7               353                       # Per bank write bursts
system.mem_ctrls.perBankRdBursts::8               421                       # Per bank write bursts
system.mem_ctrls.perBankRdBursts::9               446                       # Per bank write bursts
system.mem_ctrls.perBankRdBursts::10              431                       # Per bank write bursts
system.mem_ctrls.perBankRdBursts::11              396                       # Per bank write bursts
system.mem_ctrls.perBankRdBursts::12              308                       # Per bank write bursts
system.mem_ctrls.perBankRdBursts::13              264                       # Per bank write bursts
system.mem_ctrls.perBankRdBursts::14              287                       # Per bank write bursts
system.mem_ctrls.perBankRdBursts::15              273                       # Per bank write bursts
system.mem_ctrls.perBankWrBursts::0                66                       # Per bank write bursts
system.mem_ctrls.perBankWrBursts::1                69                       # Per bank write bursts
system.mem_ctrls.perBankWrBursts::2                77                       # Per bank write bursts
system.mem_ctrls.perBankWrBursts::3                75                       # Per bank write bursts
system.mem_ctrls.perBankWrBursts::4                69                       # Per bank write bursts
system.mem_ctrls.perBankWrBursts::5                70                       # Per bank write bursts
system.mem_ctrls.perBankWrBursts::6                70                       # Per bank write bursts
system.mem_ctrls.perBankWrBursts::7                73                       # Per bank write bursts
system.mem_ctrls.perBankWrBursts::8                73                       # Per bank write bursts
system.mem_ctrls.perBankWrBursts::9                69                       # Per bank write bursts
system.mem_ctrls.perBankWrBursts::10               66                       # Per bank write bursts
system.mem_ctrls.perBankWrBursts::11               69                       # Per bank write bursts
system.mem_ctrls.perBankWrBursts::12               68                       # Per bank write bursts
system.mem_ctrls.perBankWrBursts::13               72                       # Per bank write bursts
system.mem_ctrls.perBankWrBursts::14               74                       # Per bank write bursts
system.mem_ctrls.perBankWrBursts::15               65                       # Per bank write bursts
system.mem_ctrls.avgRdQLen                       1.13                       # Average read queue length when enqueuing
system.mem_ctrls.avgWrQLen                      21.65                       # Average write queue length when enqueuing
system.mem_ctrls.totQLat                     51347250                       # Total ticks spent queuing
system.mem_ctrls.totBusLat                   28170000                       # Total ticks spent in databus transfers
system.mem_ctrls.totMemAccLat               156984750                       # Total ticks spent from burst creation until serviced by the DRAM
system.mem_ctrls.avgQLat                      9113.82                       # Average queueing delay per DRAM burst
system.mem_ctrls.avgBusLat                    5000.00                       # Average bus latency per DRAM burst
system.mem_ctrls.avgMemAccLat                27863.82                       # Average memory access latency per DRAM burst
system.mem_ctrls.numRdRetry                         0                       # Number of times read queue was full causing retry
system.mem_ctrls.numWrRetry                         0                       # Number of times write queue was full causing retry
system.mem_ctrls.readRowHits                     4781                       # Number of row buffer hits during reads
system.mem_ctrls.writeRowHits                     946                       # Number of row buffer hits during writes
system.mem_ctrls.readRowHitRate                 84.86                       # Row buffer hit rate for reads
system.mem_ctrls.writeRowHitRate                81.83                       # Row buffer hit rate for writes
system.mem_ctrls.readPktSize::0                     0                       # Read request sizes (log2)
system.mem_ctrls.readPktSize::1                     0                       # Read request sizes (log2)
system.mem_ctrls.readPktSize::2                     0                       # Read request sizes (log2)
system.mem_ctrls.readPktSize::3                     0                       # Read request sizes (log2)
system.mem_ctrls.readPktSize::4                     0                       # Read request sizes (log2)
system.mem_ctrls.readPktSize::5                     0                       # Read request sizes (log2)
system.mem_ctrls.readPktSize::6                  5634                       # Read request sizes (log2)
system.mem_ctrls.writePktSize::0                    0                       # Write request sizes (log2)
system.mem_ctrls.writePktSize::1                    0                       # Write request sizes (log2)
system.mem_ctrls.writePktSize::2                    0                       # Write request sizes (log2)
system.mem_ctrls.writePktSize::3                    0                       # Write request sizes (log2)
system.mem_ctrls.writePktSize::4                    0                       # Write request sizes (log2)
system.mem_ctrls.writePktSize::5                    0                       # Write request sizes (log2)
system.mem_ctrls.writePktSize::6                 1156                       # Write request sizes (log2)
system.mem_ctrls.rdQLenPdf::0                    4024                       # What read queue length does an incoming req see
system.mem_ctrls.rdQLenPdf::1                    1597                       # What read queue length does an incoming req see
system.mem_ctrls.rdQLenPdf::2                      13                       # What read queue length does an incoming req see
system.mem_ctrls.rdQLenPdf::3                       0                       # What read queue length does an incoming req see
system.mem_ctrls.rdQLenPdf::4                       0                       # What read queue length does an incoming req see
system.mem_ctrls.rdQLenPdf::5                       0                       # What read queue length does an incoming req see
system.mem_ctrls.rdQLenPdf::6                       0                       # What read queue length does an incoming req see
system.mem_ctrls.rdQLenPdf::7                       0                       # What read queue length does an incoming req see
system.mem_ctrls.rdQLenPdf::8                       0                       # What read queue length does an incoming req see
system.mem_ctrls.rdQLenPdf::9                       0                       # What read queue length does an incoming req see
system.mem_ctrls.rdQLenPdf::10                      0                       # What read queue length does an incoming req see
system.mem_ctrls.rdQLenPdf::11                      0                       # What read queue length does an incoming req see
system.mem_ctrls.rdQLenPdf::12                      0                       # What read queue length does an incoming req see
system.mem_ctrls.rdQLenPdf::13                      0                       # What read queue length does an incoming req see
system.mem_ctrls.rdQLenPdf::14                      0                       # What read queue length does an incoming req see
system.mem_ctrls.rdQLenPdf::15                      0                       # What read queue length does an incoming req see
system.mem_ctrls.rdQLenPdf::16                      0                       # What read queue length does an incoming req see
system.mem_ctrls.rdQLenPdf::17                      0                       # What read queue length does an incoming req see
system.mem_ctrls.rdQLenPdf::18                      0                       # What read queue length does an incoming req see
system.mem_ctrls.rdQLenPdf::19                      0                       # What read queue length does an incoming req see
system.mem_ctrls.rdQLenPdf::20                      0                       # What read queue length does an incoming req see
system.mem_ctrls.rdQLenPdf::21                      0                       # What read queue length does an incoming req see
system.mem_ctrls.rdQLenPdf::22                      0                       # What read queue length does an incoming req see
system.mem_ctrls.rdQLenPdf::23                      0                       # What read queue length does an incoming req see
system.mem_ctrls.rdQLenPdf::24                      0                       # What read queue length does an incoming req see
system.mem_ctrls.rdQLenPdf::25                      0                       # What read queue length does an incoming req see
system.mem_ctrls.rdQLenPdf::26                      0                       # What read queue length does an incoming req see
system.mem_ctrls.rdQLenPdf::27                      0                       # What read queue length does an incoming req see
system.mem_ctrls.rdQLenPdf::28                      0                       # What read queue length does an incoming req see
system.mem_ctrls.rdQLenPdf::29                      0                       # What read queue length does an incoming req see
system.mem_ctrls.rdQLenPdf::30                      0                       # What read queue length does an incoming req see
system.mem_ctrls.rdQLenPdf::31                      0                       # What read queue length does an incoming req see
system.mem_ctrls.wrQLenPdf::0                       1                       # What write queue length does an incoming req see
system.mem_ctrls.wrQLenPdf::1                       1                       # What write queue length does an incoming req see
system.mem_ctrls.wrQLenPdf::2                       1                       # What write queue length does an incoming req see
system.mem_ctrls.wrQLenPdf::3                       1                       # What write queue length does an incoming req see
system.mem_ctrls.wrQLenPdf::4                       1                       # What write queue length does an incoming req see
system.mem_ctrls.wrQLenPdf::5                       1                       # What write queue length does an incoming req see
system.mem_ctrls.wrQLenPdf::6                       1                       # What write queue length does an incoming req see
system.mem_ctrls.wrQLenPdf::7                       1                       # What write queue length does an incoming req see
system.mem_ctrls.wrQLenPdf::8                       1                       # What write queue length does an incoming req see
system.mem_ctrls.wrQLenPdf::9                       1                       # What write queue length does an incoming req see
system.mem_ctrls.wrQLenPdf::10                      1                       # What write queue length does an incoming req see
system.mem_ctrls.wrQLenPdf::11                      1                       # What write queue length does an incoming req see
system.mem_ctrls.wrQLenPdf::12                      1                       # What write queue length does an incoming req see
system.mem_ctrls.wrQLenPdf::13                      1                       # What write queue length does an incoming req see
system.mem_ctrls.wrQLenPdf::14                      1                       # What write queue length does an incoming req see
system.mem_ctrls.wrQLenPdf::15                      2                       # What write queue length does an incoming req see
system.mem_ctrls.wrQLenPdf::16                      3                       # What write queue length does an incoming req see
system.mem_ctrls.wrQLenPdf::17                      8                       # What write queue length does an incoming req see
system.mem_ctrls.wrQLenPdf::18                     73                       # What write queue length does an incoming req see
system.mem_ctrls.wrQLenPdf::19                     72                       # What write queue length does an incoming req see
system.mem_ctrls.wrQLenPdf::20                     72                       # What write queue length does an incoming req see
system.mem_ctrls.wrQLenPdf::21                     72                       # What write queue length does an incoming req see
system.mem_ctrls.wrQLenPdf::22                     71                       # What write queue length does an incoming req see
system.mem_ctrls.wrQLenPdf::23                     78                       # What write queue length does an incoming req see
system.mem_ctrls.wrQLenPdf::24                     71                       # What write queue length does an incoming req see
system.mem_ctrls.wrQLenPdf::25                     73                       # What write queue length does an incoming req see
system.mem_ctrls.wrQLenPdf::26                     82                       # What write queue length does an incoming req see
system.mem_ctrls.wrQLenPdf::27                     72                       # What write queue length does an incoming req see
system.mem_ctrls.wrQLenPdf::28                     71                       # What write queue length does an incoming req see
system.mem_ctrls.wrQLenPdf::29                     76                       # What write queue length does an incoming req see
system.mem_ctrls.wrQLenPdf::30                     71                       # What write queue length does an incoming req see
system.mem_ctrls.wrQLenPdf::31                    104                       # What write queue length does an incoming req see
system.mem_ctrls.wrQLenPdf::32                     70                       # What write queue length does an incoming req see
system.mem_ctrls.wrQLenPdf::33                      0                       # What write queue length does an incoming req see
system.mem_ctrls.wrQLenPdf::34                      0                       # What write queue length does an incoming req see
system.mem_ctrls.wrQLenPdf::35                      0                       # What write queue length does an incoming req see
system.mem_ctrls.wrQLenPdf::36                      0                       # What write queue length does an incoming req see
system.mem_ctrls.wrQLenPdf::37                      0                       # What write queue length does an incoming req see
system.mem_ctrls.wrQLenPdf::38                      0                       # What write queue length does an incoming req see
system.mem_ctrls.wrQLenPdf::39                      0                       # What write queue length does an incoming req see
system.mem_ctrls.wrQLenPdf::40                      0                       # What write queue length does an incoming req see
system.mem_ctrls.wrQLenPdf::41                      0                       # What write queue length does an incoming req see
system.mem_ctrls.wrQLenPdf::42                      0                       # What write queue length does an incoming req see
system.mem_ctrls.wrQLenPdf::43                      0                       # What write queue length does an incoming req see
system.mem_ctrls.wrQLenPdf::44                      0                       # What write queue length does an incoming req see
system.mem_ctrls.wrQLenPdf::45                      0                       # What write queue length does an incoming req see
system.mem_ctrls.wrQLenPdf::46                      0                       # What write queue length does an incoming req see
system.mem_ctrls.wrQLenPdf::47                      0                       # What write queue length does an incoming req see
system.mem_ctrls.wrQLenPdf::48                      0                       # What write queue length does an incoming req see
system.mem_ctrls.wrQLenPdf::49                      0                       # What write queue length does an incoming req see
system.mem_ctrls.wrQLenPdf::50                      0                       # What write queue length does an incoming req see
system.mem_ctrls.wrQLenPdf::51                      0                       # What write queue length does an incoming req see
system.mem_ctrls.wrQLenPdf::52                      0                       # What write queue length does an incoming req see
system.mem_ctrls.wrQLenPdf::53                      0                       # What write queue length does an incoming req see
system.mem_ctrls.wrQLenPdf::54                      0                       # What write queue length does an incoming req see
system.mem_ctrls.wrQLenPdf::55                      0                       # What write queue length does an incoming req see
system.mem_ctrls.wrQLenPdf::56                      0                       # What write queue length does an incoming req see
system.mem_ctrls.wrQLenPdf::57                      0                       # What write queue length does an incoming req see
system.mem_ctrls.wrQLenPdf::58                      0                       # What write queue length does an incoming req see
system.mem_ctrls.wrQLenPdf::59                      0                       # What write queue length does an incoming req see
system.mem_ctrls.wrQLenPdf::60                      0                       # What write queue length does an incoming req see
system.mem_ctrls.wrQLenPdf::61                      0                       # What write queue length does an incoming req see
system.mem_ctrls.wrQLenPdf::62                      0                       # What write queue length does an incoming req see
system.mem_ctrls.wrQLenPdf::63                      0                       # What write queue length does an incoming req see
system.mem_ctrls.bytesPerActivate::samples         1031                       # Bytes accessed per row activation
system.mem_ctrls.bytesPerActivate::mean    419.507274                       # Bytes accessed per row activation
system.mem_ctrls.bytesPerActivate::gmean   346.837006                       # Bytes accessed per row activation
system.mem_ctrls.bytesPerActivate::stdev   203.078725                       # Bytes accessed per row activation
system.mem_ctrls.bytesPerActivate::0-127          109     10.57%     10.57% # Bytes accessed per row activation
system.mem_ctrls.bytesPerActivate::128-255          104     10.09%     20.66% # Bytes accessed per row activation
system.mem_ctrls.bytesPerActivate::256-383          109     10.57%     31.23% # Bytes accessed per row activation
system.mem_ctrls.bytesPerActivate::384-511           42      4.07%     35.31% # Bytes accessed per row activation
system.mem_ctrls.bytesPerActivate::512-639          615     59.65%     94.96% # Bytes accessed per row activation
system.mem_ctrls.bytesPerActivate::640-767           11      1.07%     96.02% # Bytes accessed per row activation
system.mem_ctrls.bytesPerActivate::768-895            8      0.78%     96.80% # Bytes accessed per row activation
system.mem_ctrls.bytesPerActivate::896-1023            4      0.39%     97.19% # Bytes accessed per row activation
system.mem_ctrls.bytesPerActivate::1024-1151           29      2.81%    100.00% # Bytes accessed per row activation
system.mem_ctrls.bytesPerActivate::total         1031                       # Bytes accessed per row activation
system.mem_ctrls.rdPerTurnAround::samples           70                       # Reads before turning the bus around for writes
system.mem_ctrls.rdPerTurnAround::mean      77.271429                       # Reads before turning the bus around for writes
system.mem_ctrls.rdPerTurnAround::gmean     22.002580                       # Reads before turning the bus around for writes
system.mem_ctrls.rdPerTurnAround::stdev    322.000086                       # Reads before turning the bus around for writes
system.mem_ctrls.rdPerTurnAround::0-127            64     91.43%     91.43% # Reads before turning the bus around for writes
[...]
system.cpu.icache.tags.occ_task_id_percent::1024     0.980469                       # Percentage of cache occupancy per task id
system.cpu.icache.tags.tag_accesses            564470                       # Number of tag accesses
system.cpu.icache.tags.data_accesses           564470                       # Number of data accesses
system.cpu.icache.tags.power_state.pwrStateResidencyTicks::UNDEFINED    991704000                       # Cumulative time (in ticks) in various power states
system.cpu.dtb.walker.power_state.pwrStateResidencyTicks::UNDEFINED    991704000                       # Cumulative time (in ticks) in various power states
system.cpu.dtb.stage2_mmu.stage2_tlb.walker.power_state.pwrStateResidencyTicks::UNDEFINED    991704000                       # Cumulative time (in ticks) in various power states
system.cpu.dcache.demand_hits::.cpu.data       547594                       # number of demand (read+write) hits
system.cpu.dcache.demand_hits::total           547594                       # number of demand (read+write) hits
system.cpu.dcache.overall_hits::.cpu.data       547610                       # number of overall hits
system.cpu.dcache.overall_hits::total          547610                       # number of overall hits
system.cpu.dcache.demand_misses::.cpu.data         5596                       # number of demand (read+write) misses
system.cpu.dcache.demand_misses::total           5596                       # number of demand (read+write) misses
system.cpu.dcache.overall_misses::.cpu.data         5599                       # number of overall misses
system.cpu.dcache.overall_misses::total          5599                       # number of overall misses
system.cpu.dcache.demand_miss_latency::.cpu.data    439937000                       # number of demand (read+write) miss cycles
system.cpu.dcache.demand_miss_latency::total    439937000                       # number of demand (read+write) miss cycles
system.cpu.dcache.overall_miss_latency::.cpu.data    439937000                       # number of overall miss cycles
system.cpu.dcache.overall_miss_latency::total    439937000                       # number of overall miss cycles
system.cpu.dcache.demand_accesses::.cpu.data       553190                       # number of demand (read+write) accesses
system.cpu.dcache.demand_accesses::total       553190                       # number of demand (read+write) accesses
system.cpu.dcache.overall_accesses::.cpu.data       553209                       # number of overall (read+write) accesses
system.cpu.dcache.overall_accesses::total       553209                       # number of overall (read+write) accesses
system.cpu.dcache.demand_miss_rate::.cpu.data     0.010116                       # miss rate for demand accesses
system.cpu.dcache.demand_miss_rate::total     0.010116                       # miss rate for demand accesses
system.cpu.dcache.overall_miss_rate::.cpu.data     0.010121                       # miss rate for overall accesses
system.cpu.dcache.overall_miss_rate::total     0.010121                       # miss rate for overall accesses
system.cpu.dcache.demand_avg_miss_latency::.cpu.data 78616.333095                       # average overall miss latency
system.cpu.dcache.demand_avg_miss_latency::total 78616.333095                       # average overall miss latency
system.cpu.dcache.overall_avg_miss_latency::.cpu.data 78574.209680                       # average overall miss latency
system.cpu.dcache.overall_avg_miss_latency::total 78574.209680                       # average overall miss latency
system.cpu.dcache.blocked_cycles::no_mshrs            0                       # number of cycles access was blocked
system.cpu.dcache.blocked_cycles::no_targets            0                       # number of cycles access was blocked
system.cpu.dcache.blocked::no_mshrs                 0                       # number of cycles access was blocked
system.cpu.dcache.blocked::no_targets               0                       # number of cycles access was blocked
system.cpu.dcache.avg_blocked_cycles::no_mshrs          nan                       # average number of cycles each access was blocked
system.cpu.dcache.avg_blocked_cycles::no_targets          nan                       # average number of cycles each access was blocked
system.cpu.dcache.writebacks::.writebacks         3221                       # number of writebacks
system.cpu.dcache.writebacks::total              3221                       # number of writebacks
system.cpu.dcache.demand_mshr_hits::.cpu.data          458                       # number of demand (read+write) MSHR hits
system.cpu.dcache.demand_mshr_hits::total          458                       # number of demand (read+write) MSHR hits
system.cpu.dcache.overall_mshr_hits::.cpu.data          458                       # number of overall MSHR hits
system.cpu.dcache.overall_mshr_hits::total          458                       # number of overall MSHR hits
system.cpu.dcache.demand_mshr_misses::.cpu.data         5138                       # number of demand (read+write) MSHR misses
system.cpu.dcache.demand_mshr_misses::total         5138                       # number of demand (read+write) MSHR misses
system.cpu.dcache.overall_mshr_misses::.cpu.data         5141                       # number of overall MSHR misses
system.cpu.dcache.overall_mshr_misses::total         5141                       # number of overall MSHR misses
system.cpu.dcache.demand_mshr_miss_latency::.cpu.data    408325500                       # number of demand (read+write) MSHR miss cycles
system.cpu.dcache.demand_mshr_miss_latency::total    408325500                       # number of demand (read+write) MSHR miss cycles
system.cpu.dcache.overall_mshr_miss_latency::.cpu.data    408792000                       # number of overall MSHR miss cycles
system.cpu.dcache.overall_mshr_miss_latency::total    408792000                       # number of overall MSHR miss cycles
system.cpu.dcache.demand_mshr_miss_rate::.cpu.data     0.009288                       # mshr miss rate for demand accesses
system.cpu.dcache.demand_mshr_miss_rate::total     0.009288                       # mshr miss rate for demand accesses
system.cpu.dcache.overall_mshr_miss_rate::.cpu.data     0.009293                       # mshr miss rate for overall accesses
system.cpu.dcache.overall_mshr_miss_rate::total     0.009293                       # mshr miss rate for overall accesses
system.cpu.dcache.demand_avg_mshr_miss_latency::.cpu.data 79471.681588                       # average overall mshr miss latency
system.cpu.dcache.demand_avg_mshr_miss_latency::total 79471.681588                       # average overall mshr miss latency
system.cpu.dcache.overall_avg_mshr_miss_latency::.cpu.data 79516.047462                       # average overall mshr miss latency
system.cpu.dcache.overall_avg_mshr_miss_latency::total 79516.047462                       # average overall mshr miss latency
system.cpu.dcache.replacements                   4117                       # number of replacements
system.cpu.dcache.ReadReq_hits::.cpu.data       379875                       # number of ReadReq hits
system.cpu.dcache.ReadReq_hits::total          379875                       # number of ReadReq hits
system.cpu.dcache.ReadReq_misses::.cpu.data         1552                       # number of ReadReq misses
system.cpu.dcache.ReadReq_misses::total          1552                       # number of ReadReq misses
system.cpu.dcache.ReadReq_miss_latency::.cpu.data    116945500                       # number of ReadReq miss cycles
system.cpu.dcache.ReadReq_miss_latency::total    116945500                       # number of ReadReq miss cycles
system.cpu.dcache.ReadReq_accesses::.cpu.data       381427                       # number of ReadReq accesses(hits+misses)
system.cpu.dcache.ReadReq_accesses::total       381427                       # number of ReadReq accesses(hits+misses)
system.cpu.dcache.ReadReq_miss_rate::.cpu.data     0.004069                       # miss rate for ReadReq accesses
system.cpu.dcache.ReadReq_miss_rate::total     0.004069                       # miss rate for ReadReq accesses
system.cpu.dcache.ReadReq_avg_miss_latency::.cpu.data 75351.481959                       # average ReadReq miss latency
system.cpu.dcache.ReadReq_avg_miss_latency::total 75351.481959                       # average ReadReq miss latency
system.cpu.dcache.ReadReq_mshr_hits::.cpu.data            8                       # number of ReadReq MSHR hits
system.cpu.dcache.ReadReq_mshr_hits::total            8                       # number of ReadReq MSHR hits
system.cpu.dcache.ReadReq_mshr_misses::.cpu.data         1544                       # number of ReadReq MSHR misses
system.cpu.dcache.ReadReq_mshr_misses::total         1544                       # number of ReadReq MSHR misses
system.cpu.dcache.ReadReq_mshr_miss_latency::.cpu.data    114517000                       # number of ReadReq MSHR miss cycles
system.cpu.dcache.ReadReq_mshr_miss_latency::total    114517000                       # number of ReadReq MSHR miss cycles
system.cpu.dcache.ReadReq_mshr_miss_rate::.cpu.data     0.004048                       # mshr miss rate for ReadReq accesses
system.cpu.dcache.ReadReq_mshr_miss_rate::total     0.004048                       # mshr miss rate for ReadReq accesses
system.cpu.dcache.ReadReq_avg_mshr_miss_latency::.cpu.data 74169.041451                       # average ReadReq mshr miss latency
system.cpu.dcache.ReadReq_avg_mshr_miss_latency::total 74169.041451                       # average ReadReq mshr miss latency
system.cpu.dcache.WriteReq_hits::.cpu.data       167719                       # number of WriteReq hits
system.cpu.dcache.WriteReq_hits::total         167719                       # number of WriteReq hits
system.cpu.dcache.WriteReq_misses::.cpu.data         4037                       # number of WriteReq misses
system.cpu.dcache.WriteReq_misses::total         4037                       # number of WriteReq misses
system.cpu.dcache.WriteReq_miss_latency::.cpu.data    322770000                       # number of WriteReq miss cycles
system.cpu.dcache.WriteReq_miss_latency::total    322770000                       # number of WriteReq miss cycles
system.cpu.dcache.WriteReq_accesses::.cpu.data       171756                       # number of WriteReq accesses(hits+misses)
system.cpu.dcache.WriteReq_accesses::total       171756                       # number of WriteReq accesses(hits+misses)
system.cpu.dcache.WriteReq_miss_rate::.cpu.data     0.023504                       # miss rate for WriteReq accesses
system.cpu.dcache.WriteReq_miss_rate::total     0.023504                       # miss rate for WriteReq accesses
system.cpu.dcache.WriteReq_avg_miss_latency::.cpu.data 79952.935348                       # average WriteReq miss latency
system.cpu.dcache.WriteReq_avg_miss_latency::total 79952.935348                       # average WriteReq miss latency
system.cpu.dcache.WriteReq_mshr_hits::.cpu.data          450                       # number of WriteReq MSHR hits
system.cpu.dcache.WriteReq_mshr_hits::total          450                       # number of WriteReq MSHR hits
system.cpu.dcache.WriteReq_mshr_misses::.cpu.data         3587                       # number of WriteReq MSHR misses
system.cpu.dcache.WriteReq_mshr_misses::total         3587                       # number of WriteReq MSHR misses
system.cpu.dcache.WriteReq_mshr_miss_latency::.cpu.data    293594000                       # number of WriteReq MSHR miss cycles
system.cpu.dcache.WriteReq_mshr_miss_latency::total    293594000                       # number of WriteReq MSHR miss cycles
system.cpu.dcache.WriteReq_mshr_miss_rate::.cpu.data     0.020884                       # mshr miss rate for WriteReq accesses
system.cpu.dcache.WriteReq_mshr_miss_rate::total     0.020884                       # mshr miss rate for WriteReq accesses
system.cpu.dcache.WriteReq_avg_mshr_miss_latency::.cpu.data 81849.456370                       # average WriteReq mshr miss latency
system.cpu.dcache.WriteReq_avg_mshr_miss_latency::total 81849.456370                       # average WriteReq mshr miss latency
system.cpu.dcache.SoftPFReq_hits::.cpu.data           16                       # number of SoftPFReq hits
system.cpu.dcache.SoftPFReq_hits::total            16                       # number of SoftPFReq hits
system.cpu.dcache.SoftPFReq_misses::.cpu.data            3                       # number of SoftPFReq misses
system.cpu.dcache.SoftPFReq_misses::total            3                       # number of SoftPFReq misses
system.cpu.dcache.SoftPFReq_accesses::.cpu.data           19                       # number of SoftPFReq accesses(hits+misses)
system.cpu.dcache.SoftPFReq_accesses::total           19                       # number of SoftPFReq accesses(hits+misses)
system.cpu.dcache.SoftPFReq_miss_rate::.cpu.data     0.157895                       # miss rate for SoftPFReq accesses
system.cpu.dcache.SoftPFReq_miss_rate::total     0.157895                       # miss rate for SoftPFReq accesses
system.cpu.dcache.SoftPFReq_mshr_misses::.cpu.data            3                       # number of SoftPFReq MSHR misses
system.cpu.dcache.SoftPFReq_mshr_misses::total            3                       # number of SoftPFReq MSHR misses
system.cpu.dcache.SoftPFReq_mshr_miss_latency::.cpu.data       466500                       # number of SoftPFReq MSHR miss cycles
system.cpu.dcache.SoftPFReq_mshr_miss_latency::total       466500                       # number of SoftPFReq MSHR miss cycles
system.cpu.dcache.SoftPFReq_mshr_miss_rate::.cpu.data     0.157895                       # mshr miss rate for SoftPFReq accesses
system.cpu.dcache.SoftPFReq_mshr_miss_rate::total     0.157895                       # mshr miss rate for SoftPFReq accesses
system.cpu.dcache.SoftPFReq_avg_mshr_miss_latency::.cpu.data       155500                       # average SoftPFReq mshr miss latency
system.cpu.dcache.SoftPFReq_avg_mshr_miss_latency::total       155500                       # average SoftPFReq mshr miss latency
system.cpu.dcache.WriteLineReq_misses::.cpu.data            7                       # number of WriteLineReq misses
system.cpu.dcache.WriteLineReq_misses::total            7                       # number of WriteLineReq misses
system.cpu.dcache.WriteLineReq_miss_latency::.cpu.data       221500                       # number of WriteLineReq miss cycles
system.cpu.dcache.WriteLineReq_miss_latency::total       221500                       # number of WriteLineReq miss cycles
system.cpu.dcache.WriteLineReq_accesses::.cpu.data            7                       # number of WriteLineReq accesses(hits+misses)
system.cpu.dcache.WriteLineReq_accesses::total            7                       # number of WriteLineReq accesses(hits+misses)
system.cpu.dcache.WriteLineReq_miss_rate::.cpu.data            1                       # miss rate for WriteLineReq accesses
system.cpu.dcache.WriteLineReq_miss_rate::total            1                       # miss rate for WriteLineReq accesses
system.cpu.dcache.WriteLineReq_avg_miss_latency::.cpu.data 31642.857143                       # average WriteLineReq miss latency
system.cpu.dcache.WriteLineReq_avg_miss_latency::total 31642.857143                       # average WriteLineReq miss latency
system.cpu.dcache.WriteLineReq_mshr_misses::.cpu.data            7                       # number of WriteLineReq MSHR misses
system.cpu.dcache.WriteLineReq_mshr_misses::total            7                       # number of WriteLineReq MSHR misses
system.cpu.dcache.WriteLineReq_mshr_miss_latency::.cpu.data       214500                       # number of WriteLineReq MSHR miss cycles
system.cpu.dcache.WriteLineReq_mshr_miss_latency::total       214500                       # number of WriteLineReq MSHR miss cycles
system.cpu.dcache.WriteLineReq_mshr_miss_rate::.cpu.data            1                       # mshr miss rate for WriteLineReq accesses
system.cpu.dcache.WriteLineReq_mshr_miss_rate::total            1                       # mshr miss rate for WriteLineReq accesses
system.cpu.dcache.WriteLineReq_avg_mshr_miss_latency::.cpu.data 30642.857143                       # average WriteLineReq mshr miss latency
system.cpu.dcache.WriteLineReq_avg_mshr_miss_latency::total 30642.857143                       # average WriteLineReq mshr miss latency
system.cpu.dcache.LoadLockedReq_hits::.cpu.data           36                       # number of LoadLockedReq hits
system.cpu.dcache.LoadLockedReq_hits::total           36                       # number of LoadLockedReq hits
system.cpu.dcache.LoadLockedReq_accesses::.cpu.data           36                       # number of LoadLockedReq accesses(hits+misses)
system.cpu.dcache.LoadLockedReq_accesses::total           36                       # number of LoadLockedReq accesses(hits+misses)
system.cpu.dcache.StoreCondReq_hits::.cpu.data           36                       # number of StoreCondReq hits
system.cpu.dcache.StoreCondReq_hits::total           36                       # number of StoreCondReq hits
system.cpu.dcache.StoreCondReq_accesses::.cpu.data           36                       # number of StoreCondReq accesses(hits+misses)
system.cpu.dcache.StoreCondReq_accesses::total           36                       # number of StoreCondReq accesses(hits+misses)
system.cpu.dcache.power_state.pwrStateResidencyTicks::UNDEFINED    991704000                       # Cumulative time (in ticks) in various power states
system.cpu.dcache.tags.tagsinuse           839.277060                       # Cycle average of tags in use
system.cpu.dcache.tags.total_refs              552823                       # Total number of references to valid blocks.
system.cpu.dcache.tags.sampled_refs              5141                       # Sample count of references to valid blocks.
system.cpu.dcache.tags.avg_refs            107.532192                       # Average number of references to valid blocks.
system.cpu.dcache.tags.warmup_cycle            178500                       # Cycle when the warmup percentage was hit.
system.cpu.dcache.tags.occ_blocks::.cpu.data   839.277060                       # Average occupied blocks per requestor
system.cpu.dcache.tags.occ_percent::.cpu.data     0.819607                       # Average percentage of cache occupancy
system.cpu.dcache.tags.occ_percent::total     0.819607                       # Average percentage of cache occupancy
system.cpu.dcache.tags.occ_task_id_blocks::1024         1024                       # Occupied blocks per task id
system.cpu.dcache.tags.age_task_id_blocks_1024::0            5                       # Occupied blocks per task id
system.cpu.dcache.tags.age_task_id_blocks_1024::1          116                       # Occupied blocks per task id
system.cpu.dcache.tags.age_task_id_blocks_1024::2          903                       # Occupied blocks per task id
system.cpu.dcache.tags.occ_task_id_percent::1024            1                       # Percentage of cache occupancy per task id
system.cpu.dcache.tags.tag_accesses           1111703                       # Number of tag accesses
system.cpu.dcache.tags.data_accesses          1111703                       # Number of data accesses
system.cpu.dcache.tags.power_state.pwrStateResidencyTicks::UNDEFINED    991704000                       # Cumulative time (in ticks) in various power states
system.cpu.power_state.pwrStateResidencyTicks::ON    991704000                       # Cumulative time (in ticks) in various power states
system.cpu.itb.walker.power_state.pwrStateResidencyTicks::UNDEFINED    991704000                       # Cumulative time (in ticks) in various power states
system.cpu.itb.stage2_mmu.stage2_tlb.walker.power_state.pwrStateResidencyTicks::UNDEFINED    991704000                       # Cumulative time (in ticks) in various power states

---------- End Simulation Statistics   ----------
