
---------- Begin Simulation Statistics ----------
final_tick                                 1188482500                       # Number of ticks from beginning of simulation (restored from checkpoints and never reset)
host_inst_rate                                 203556                       # Simulator instruction rate (inst/s)
host_mem_usage                                 847380                       # Number of bytes of host memory used
host_op_rate                                   214395                       # Simulator op (including micro ops) rate (op/s)
host_seconds                                     4.91                       # Real time elapsed on the host
host_tick_rate                              241914752                       # Simulator tick rate (ticks/s)
sim_freq                                 1000000000000                       # Frequency of simulated ticks
sim_insts                                     1000001                       # Number of instructions simulated
sim_ops                                       1053278                       # Number of ops (including micro ops) simulated
sim_seconds                                  0.001188                       # Number of seconds simulated
sim_ticks                                  1188482500                       # Number of ticks simulated
system.cpu.branchPred.BTBCorrect                    0                       # Number of correct BTB predictions (this stat may not work properly.
system.cpu.branchPred.BTBHitPct             97.130602                       # BTB Hit Percentage
system.cpu.branchPred.BTBHits                   68615                       # Number of BTB hits
system.cpu.branchPred.BTBLookups                70642                       # Number of BTB lookups
system.cpu.branchPred.RASInCorrect                620                       # Number of incorrect RAS predictions.
system.cpu.branchPred.condIncorrect             47332                       # Number of conditional branches incorrect
system.cpu.branchPred.condPredicted            163432                       # Number of conditional branches predicted
system.cpu.branchPred.indirectHits                  8                       # Number of indirect target hits.
system.cpu.branchPred.indirectLookups             104                       # Number of indirect predictor lookups.
system.cpu.branchPred.indirectMisses               96                       # Number of indirect misses.
system.cpu.branchPred.lookups                  211471                       # Number of BP lookups
system.cpu.branchPred.usedRAS                    2252                       # Number of times the RAS was used to get a target.
system.cpu.branchPredindirectMispredicted           71                       # Number of mispredicted indirect branches.
system.cpu.committedInsts                     1000001                       # Number of instructions committed
system.cpu.committedOps                       1053278                       # Number of ops (including micro ops) committed
system.cpu.cpi                               2.376963                       # CPI: cycles per instruction
system.cpu.discardedOps                         92761                       # Number of ops (including micro ops) which were discarded before commit
system.cpu.dtb.accesses                             0                       # DTB accesses
system.cpu.dtb.align_faults                         0                       # Number of TLB faults due to alignment restrictions
system.cpu.dtb.domain_faults                        0                       # Number of TLB faults due to domain restrictions
system.cpu.dtb.flush_entries                        0                       # Number of entries that have been flushed from TLB
system.cpu.dtb.flush_tlb                            0                       # Number of times complete TLB was flushed
system.cpu.dtb.flush_tlb_asid                       0                       # Number of times TLB was flushed by ASID
system.cpu.dtb.flush_tlb_mva                        0                       # Number of times TLB was flushed by MVA
system.cpu.dtb.flush_tlb_mva_asid                   0                       # Number of times TLB was flushed by MVA & ASID
system.cpu.dtb.hits                                 0                       # DTB hits
system.cpu.dtb.inst_accesses                        0                       # ITB inst accesses
system.cpu.dtb.inst_hits                            0                       # ITB inst hits
system.cpu.dtb.inst_misses                          0                       # ITB inst misses
system.cpu.dtb.misses                               0                       # DTB misses
system.cpu.dtb.perms_faults                         0                       # Number of TLB faults due to permissions restrictions
system.cpu.dtb.prefetch_faults                      0                       # Number of TLB faults due to prefetch
system.cpu.dtb.read_accesses                        0                       # DTB read accesses
system.cpu.dtb.read_hits                            0                       # DTB read hits
system.cpu.dtb.read_misses                          0                       # DTB read misses
system.cpu.dtb.stage2_mmu.stage2_tlb.accesses            0                       # DTB accesses
system.cpu.dtb.stage2_mmu.stage2_tlb.align_faults            0                       # Number of TLB faults due to alignment restrictions
system.cpu.dtb.stage2_mmu.stage2_tlb.domain_faults            0                       # Number of TLB faults due to domain restrictions
system.cpu.dtb.stage2_mmu.stage2_tlb.flush_entries            0                       # Number of entries that have been flushed from TLB
system.cpu.dtb.stage2_mmu.stage2_tlb.flush_tlb            0                       # Number of times complete TLB was flushed
system.cpu.dtb.stage2_mmu.stage2_tlb.flush_tlb_asid            0                       # Number of times TLB was flushed by ASID
system.cpu.dtb.stage2_mmu.stage2_tlb.flush_tlb_mva            0                       # Number of times TLB was flushed by MVA
system.cpu.dtb.stage2_mmu.stage2_tlb.flush_tlb_mva_asid            0                       # Number of times TLB was flushed by MVA & ASID
system.cpu.dtb.stage2_mmu.stage2_tlb.hits            0                       # DTB hits
system.cpu.dtb.stage2_mmu.stage2_tlb.inst_accesses            0                       # ITB inst accesses
system.cpu.dtb.stage2_mmu.stage2_tlb.inst_hits            0                       # ITB inst hits
system.cpu.dtb.stage2_mmu.stage2_tlb.inst_misses            0                       # ITB inst misses
system.cpu.dtb.stage2_mmu.stage2_tlb.misses            0                       # DTB misses
system.cpu.dtb.stage2_mmu.stage2_tlb.perms_faults            0                       # Number of TLB faults due to permissions restrictions
system.cpu.dtb.stage2_mmu.stage2_tlb.prefetch_faults            0                       # Number of TLB faults due to prefetch
system.cpu.dtb.stage2_mmu.stage2_tlb.read_accesses            0                       # DTB read accesses
system.cpu.dtb.stage2_mmu.stage2_tlb.read_hits            0                       # DTB read hits
system.cpu.dtb.stage2_mmu.stage2_tlb.read_misses            0                       # DTB read misses
system.cpu.dtb.stage2_mmu.stage2_tlb.walker.walkRequestOrigin_Requested::Data            0                       # Table walker requests started/completed, data/inst
system.cpu.dtb.stage2_mmu.stage2_tlb.walker.walkRequestOrigin_Requested::Inst            0                       # Table walker requests started/completed, data/inst
system.cpu.dtb.stage2_mmu.stage2_tlb.walker.walkRequestOrigin_Requested::total            0                       # Table walker requests started/completed, data/inst
system.cpu.dtb.stage2_mmu.stage2_tlb.walker.walkRequestOrigin_Completed::Data            0                       # Table walker requests started/completed, data/inst
system.cpu.dtb.stage2_mmu.stage2_tlb.walker.walkRequestOrigin_Completed::Inst            0                       # Table walker requests started/completed, data/inst
system.cpu.dtb.stage2_mmu.stage2_tlb.walker.walkRequestOrigin_Completed::total            0                       # Table walker requests started/completed, data/inst
system.cpu.dtb.stage2_mmu.stage2_tlb.walker.walkRequestOrigin::total            0                       # Table walker requests started/completed, data/inst
system.cpu.dtb.stage2_mmu.stage2_tlb.walker.walks            0                       # Table walker walks requested
system.cpu.dtb.stage2_mmu.stage2_tlb.write_accesses            0                       # DTB write accesses
system.cpu.dtb.stage2_mmu.stage2_tlb.write_hits            0                       # DTB write hits
system.cpu.dtb.stage2_mmu.stage2_tlb.write_misses            0                       # DTB write misses
system.cpu.dtb.walker.walkRequestOrigin_Requested::Data            0                       # Table walker requests started/completed, data/inst
system.cpu.dtb.walker.walkRequestOrigin_Requested::Inst            0                       # Table walker requests started/completed, data/inst
system.cpu.dtb.walker.walkRequestOrigin_Requested::total            0                       # Table walker requests started/completed, data/inst
system.cpu.dtb.walker.walkRequestOrigin_Completed::Data            0                       # Table walker requests started/completed, data/inst
system.cpu.dtb.walker.walkRequestOrigin_Completed::Inst            0                       # Table walker requests started/completed, data/inst
system.cpu.dtb.walker.walkRequestOrigin_Completed::total            0                       # Table walker requests started/completed, data/inst
system.cpu.dtb.walker.walkRequestOrigin::total            0                       # Table walker requests started/completed, data/inst
system.cpu.dtb.walker.walks                         0                       # Table walker walks requested
system.cpu.dtb.write_accesses                       0                       # DTB write accesses
system.cpu.dtb.write_hits                           0                       # DTB write hits
system.cpu.dtb.write_misses                         0                       # DTB write misses
system.cpu.fetch2.amo_instructions                  0                       # Number of memory atomic instructions successfully decoded
system.cpu.fetch2.fp_instructions                   0                       # Number of floating point instructions successfully decoded
system.cpu.fetch2.int_instructions             436592                       # Number of integer instructions successfully decoded
system.cpu.fetch2.load_instructions            449632                       # Number of memory load instructions successfully decoded
system.cpu.fetch2.store_instructions           187359                       # Number of memory store instructions successfully decoded
system.cpu.fetch2.vec_instructions                153                       # Number of SIMD instructions successfully decoded
system.cpu.idleCycles                          553457                       # Total number of cycles that the object has spent stopped
system.cpu.ipc                               0.420705                       # IPC: instructions per cycle
system.cpu.itb.accesses                             0                       # DTB accesses
system.cpu.itb.align_faults                         0                       # Number of TLB faults due to alignment restrictions
system.cpu.itb.domain_faults                        0                       # Number of TLB faults due to domain restrictions
system.cpu.itb.flush_entries                        0                       # Number of entries that have been flushed from TLB
system.cpu.itb.flush_tlb                            0                       # Number of times complete TLB was flushed
system.cpu.itb.flush_tlb_asid                       0                       # Number of times TLB was flushed by ASID
system.cpu.itb.flush_tlb_mva                        0                       # Number of times TLB was flushed by MVA
system.cpu.itb.flush_tlb_mva_asid                   0                       # Number of times TLB was flushed by MVA & ASID
system.cpu.itb.hits                                 0                       # DTB hits
system.cpu.itb.inst_accesses                        0                       # ITB inst accesses
system.cpu.itb.inst_hits                            0                       # ITB inst hits
system.cpu.itb.inst_misses                          0                       # ITB inst misses
system.cpu.itb.misses                               0                       # DTB misses
system.cpu.itb.perms_faults                         0                       # Number of TLB faults due to permissions restrictions
system.cpu.itb.prefetch_faults                      0                       # Number of TLB faults due to prefetch
system.cpu.itb.read_accesses                        0                       # DTB read accesses
system.cpu.itb.read_hits                            0                       # DTB read hits
system.cpu.itb.read_misses                          0                       # DTB read misses
system.cpu.itb.stage2_mmu.stage2_tlb.accesses            0                       # DTB accesses
system.cpu.itb.stage2_mmu.stage2_tlb.align_faults            0                       # Number of TLB faults due to alignment restrictions
system.cpu.itb.stage2_mmu.stage2_tlb.domain_faults            0                       # Number of TLB faults due to domain restrictions
system.cpu.itb.stage2_mmu.stage2_tlb.flush_entries            0                       # Number of entries that have been flushed from TLB
system.cpu.itb.stage2_mmu.stage2_tlb.flush_tlb            0                       # Number of times complete TLB was flushed
system.cpu.itb.stage2_mmu.stage2_tlb.flush_tlb_asid            0                       # Number of times TLB was flushed by ASID
system.cpu.itb.stage2_mmu.stage2_tlb.flush_tlb_mva            0                       # Number of times TLB was flushed by MVA
system.cpu.itb.stage2_mmu.stage2_tlb.flush_tlb_mva_asid            0                       # Number of times TLB was flushed by MVA & ASID
system.cpu.itb.stage2_mmu.stage2_tlb.hits            0                       # DTB hits
system.cpu.itb.stage2_mmu.stage2_tlb.inst_accesses            0                       # ITB inst accesses
system.cpu.itb.stage2_mmu.stage2_tlb.inst_hits            0                       # ITB inst hits
system.cpu.itb.stage2_mmu.stage2_tlb.inst_misses            0                       # ITB inst misses
system.cpu.itb.stage2_mmu.stage2_tlb.misses            0                       # DTB misses
system.cpu.itb.stage2_mmu.stage2_tlb.perms_faults            0                       # Number of TLB faults due to permissions restrictions
system.cpu.itb.stage2_mmu.stage2_tlb.prefetch_faults            0                       # Number of TLB faults due to prefetch
system.cpu.itb.stage2_mmu.stage2_tlb.read_accesses            0                       # DTB read accesses
system.cpu.itb.stage2_mmu.stage2_tlb.read_hits            0                       # DTB read hits
system.cpu.itb.stage2_mmu.stage2_tlb.read_misses            0                       # DTB read misses
system.cpu.itb.stage2_mmu.stage2_tlb.walker.walkRequestOrigin_Requested::Data            0                       # Table walker requests started/completed, data/inst
system.cpu.itb.stage2_mmu.stage2_tlb.walker.walkRequestOrigin_Requested::Inst            0                       # Table walker requests started/completed, data/inst
system.cpu.itb.stage2_mmu.stage2_tlb.walker.walkRequestOrigin_Requested::total            0                       # Table walker requests started/completed, data/inst
system.cpu.itb.stage2_mmu.stage2_tlb.walker.walkRequestOrigin_Completed::Data            0                       # Table walker requests started/completed, data/inst
system.cpu.itb.stage2_mmu.stage2_tlb.walker.walkRequestOrigin_Completed::Inst            0                       # Table walker requests started/completed, data/inst
system.cpu.itb.stage2_mmu.stage2_tlb.walker.walkRequestOrigin_Completed::total            0                       # Table walker requests started/completed, data/inst
system.cpu.itb.stage2_mmu.stage2_tlb.walker.walkRequestOrigin::total            0                       # Table walker requests started/completed, data/inst
system.cpu.itb.stage2_mmu.stage2_tlb.walker.walks            0                       # Table walker walks requested
system.cpu.itb.stage2_mmu.stage2_tlb.write_accesses            0                       # DTB write accesses
system.cpu.itb.stage2_mmu.stage2_tlb.write_hits            0                       # DTB write hits
system.cpu.itb.stage2_mmu.stage2_tlb.write_misses            0                       # DTB write misses
system.cpu.itb.walker.walkRequestOrigin_Requested::Data            0                       # Table walker requests started/completed, data/inst
system.cpu.itb.walker.walkRequestOrigin_Requested::Inst            0                       # Table walker requests started/completed, data/inst
system.cpu.itb.walker.walkRequestOrigin_Requested::total            0                       # Table walker requests started/completed, data/inst
system.cpu.itb.walker.walkRequestOrigin_Completed::Data            0                       # Table walker requests started/completed, data/inst
system.cpu.itb.walker.walkRequestOrigin_Completed::Inst            0                       # Table walker requests started/completed, data/inst
system.cpu.itb.walker.walkRequestOrigin_Completed::total            0                       # Table walker requests started/completed, data/inst
system.cpu.itb.walker.walkRequestOrigin::total            0                       # Table walker requests started/completed, data/inst
system.cpu.itb.walker.walks                         0                       # Table walker walks requested
system.cpu.itb.write_accesses                       0                       # DTB write accesses
system.cpu.itb.write_hits                           0                       # DTB write hits
system.cpu.itb.write_misses                         0                       # DTB write misses
system.cpu.numCycles                          2376965                       # number of cpu cycles simulated
system.cpu.numFetchSuspends                         0                       # Number of times Execute suspended instruction fetching
system.cpu.numWorkItemsCompleted                    0                       # number of work items this cpu completed
system.cpu.numWorkItemsStarted                      0                       # number of work items this cpu started
system.cpu.op_class_0::No_OpClass                   9      0.00%      0.00% # Class of committed instruction
system.cpu.op_class_0::IntAlu                  499270     47.40%     47.40% # Class of committed instruction
system.cpu.op_class_0::IntMult                     23      0.00%     47.40% # Class of committed instruction
system.cpu.op_class_0::IntDiv                       3      0.00%     47.40% # Class of committed instruction
system.cpu.op_class_0::FloatAdd                     0      0.00%     47.40% # Class of committed instruction
system.cpu.op_class_0::FloatCmp                     0      0.00%     47.40% # Class of committed instruction
system.cpu.op_class_0::FloatCvt                     0      0.00%     47.40% # Class of committed instruction
system.cpu.op_class_0::FloatMult                    0      0.00%     47.40% # Class of committed instruction
system.cpu.op_class_0::FloatMultAcc                 0      0.00%     47.40% # Class of committed instruction
system.cpu.op_class_0::FloatDiv                     0      0.00%     47.40% # Class of committed instruction
system.cpu.op_class_0::FloatMisc                    0      0.00%     47.40% # Class of committed instruction
system.cpu.op_class_0::FloatSqrt                    0      0.00%     47.40% # Class of committed instruction
system.cpu.op_class_0::SimdAdd                     29      0.00%     47.41% # Class of committed instruction
system.cpu.op_class_0::SimdAddAcc                   0      0.00%     47.41% # Class of committed instruction
system.cpu.op_class_0::SimdAlu                     34      0.00%     47.41% # Class of committed instruction
system.cpu.op_class_0::SimdCmp                     36      0.00%     47.41% # Class of committed instruction
system.cpu.op_class_0::SimdCvt                      0      0.00%     47.41% # Class of committed instruction
system.cpu.op_class_0::SimdMisc                    26      0.00%     47.42% # Class of committed instruction
system.cpu.op_class_0::SimdMult                     0      0.00%     47.42% # Class of committed instruction
system.cpu.op_class_0::SimdMultAcc                  0      0.00%     47.42% # Class of committed instruction
system.cpu.op_class_0::SimdShift                    0      0.00%     47.42% # Class of committed instruction
system.cpu.op_class_0::SimdShiftAcc                 0      0.00%     47.42% # Class of committed instruction
system.cpu.op_class_0::SimdDiv                      0      0.00%     47.42% # Class of committed instruction
system.cpu.op_class_0::SimdSqrt                     0      0.00%     47.42% # Class of committed instruction
system.cpu.op_class_0::SimdFloatAdd                 0      0.00%     47.42% # Class of committed instruction
system.cpu.op_class_0::SimdFloatAlu                 0      0.00%     47.42% # Class of committed instruction
system.cpu.op_class_0::SimdFloatCmp                 0      0.00%     47.42% # Class of committed instruction
system.cpu.op_class_0::SimdFloatCvt                 0      0.00%     47.42% # Class of committed instruction
system.cpu.op_class_0::SimdFloatDiv                 0      0.00%     47.42% # Class of committed instruction
system.cpu.op_class_0::SimdFloatMisc                0      0.00%     47.42% # Class of committed instruction
system.cpu.op_class_0::SimdFloatMult                0      0.00%     47.42% # Class of committed instruction
system.cpu.op_class_0::SimdFloatMultAcc             0      0.00%     47.42% # Class of committed instruction
system.cpu.op_class_0::SimdFloatSqrt                0      0.00%     47.42% # Class of committed instruction
system.cpu.op_class_0::SimdReduceAdd                0      0.00%     47.42% # Class of committed instruction
system.cpu.op_class_0::SimdReduceAlu                0      0.00%     47.42% # Class of committed instruction
system.cpu.op_class_0::SimdReduceCmp                0      0.00%     47.42% # Class of committed instruction
system.cpu.op_class_0::SimdFloatReduceAdd            0      0.00%     47.42% # Class of committed instruction
system.cpu.op_class_0::SimdFloatReduceCmp            0      0.00%     47.42% # Class of committed instruction
system.cpu.op_class_0::SimdAes                      0      0.00%     47.42% # Class of committed instruction
system.cpu.op_class_0::SimdAesMix                   0      0.00%     47.42% # Class of committed instruction
system.cpu.op_class_0::SimdSha1Hash                 0      0.00%     47.42% # Class of committed instruction
system.cpu.op_class_0::SimdSha1Hash2                0      0.00%     47.42% # Class of committed instruction
system.cpu.op_class_0::SimdSha256Hash               0      0.00%     47.42% # Class of committed instruction
system.cpu.op_class_0::SimdSha256Hash2              0      0.00%     47.42% # Class of committed instruction
system.cpu.op_class_0::SimdShaSigma2                0      0.00%     47.42% # Class of committed instruction
system.cpu.op_class_0::SimdShaSigma3                0      0.00%     47.42% # Class of committed instruction
system.cpu.op_class_0::SimdPredAlu                  0      0.00%     47.42% # Class of committed instruction
system.cpu.op_class_0::MemRead                 381270     36.20%     83.62% # Class of committed instruction
system.cpu.op_class_0::MemWrite                172578     16.38%    100.00% # Class of committed instruction
system.cpu.op_class_0::FloatMemRead                 0      0.00%    100.00% # Class of committed instruction
system.cpu.op_class_0::FloatMemWrite                0      0.00%    100.00% # Class of committed instruction
system.cpu.op_class_0::IprAccess                    0      0.00%    100.00% # Class of committed instruction
system.cpu.op_class_0::InstPrefetch                 0      0.00%    100.00% # Class of committed instruction
system.cpu.op_class_0::total                  1053278                       # Class of committed instruction
system.cpu.tickCycles                         1823508                       # Number of cycles that the object actually ticked
system.cpu.workload.numSyscalls                    23                       # Number of system calls
system.membus.snoop_filter.hit_multi_requests            0                       # Number of requests hitting in the snoop filter with multiple (>1) holders of the requested data.
system.membus.snoop_filter.hit_multi_snoops            0                       # Number of snoops hitting in the snoop filter with multiple (>1) holders of the requested data.
system.membus.snoop_filter.hit_single_requests         1171                       # Number of requests hitting in the snoop filter with a single holder of the requested data.
system.membus.snoop_filter.hit_single_snoops            0                       # Number of snoops hitting in the snoop filter with a single holder of the requested data.
system.membus.snoop_filter.tot_requests          6809                       # Total number of requests made to the snoop filter.
system.membus.snoop_filter.tot_snoops               0                       # Total number of snoops made to the snoop filter.
system.tol2bus.snoop_filter.hit_multi_requests            1                       # Number of requests hitting in the snoop filter with multiple (>1) holders of the requested data.
system.tol2bus.snoop_filter.hit_multi_snoops            0                       # Number of snoops hitting in the snoop filter with multiple (>1) holders of the requested data.
system.tol2bus.snoop_filter.hit_single_requests         4529                       # Number of requests hitting in the snoop filter with a single holder of the requested data.
system.tol2bus.snoop_filter.hit_single_snoops           14                       # Number of snoops hitting in the snoop filter with a single holder of the requested data.
system.tol2bus.snoop_filter.tot_requests        10333                       # Total number of requests made to the snoop filter.
system.tol2bus.snoop_filter.tot_snoops             14                       # Total number of snoops made to the snoop filter.
system.membus.trans_dist::ReadResp               2071                       # Transaction distribution
system.membus.trans_dist::WritebackDirty         1156                       # Transaction distribution
system.membus.trans_dist::CleanEvict               15                       # Transaction distribution
system.membus.trans_dist::ReadExReq              3560                       # Transaction distribution
system.membus.trans_dist::ReadExResp             3560                       # Transaction distribution
system.membus.trans_dist::ReadSharedReq          2071                       # Transaction distribution
system.membus.trans_dist::InvalidateReq             7                       # Transaction distribution
system.membus.pkt_count_system.l2.mem_side::system.mem_ctrls.port        12440                       # Packet count per connected master and slave (bytes)
system.membus.pkt_count::total                  12440                       # Packet count per connected master and slave (bytes)
system.membus.pkt_size_system.l2.mem_side::system.mem_ctrls.port       434368                       # Cumulative packet size per connected master and slave (bytes)
system.membus.pkt_size::total                  434368                       # Cumulative packet size per connected master and slave (bytes)
system.membus.snoops                                0                       # Total snoops (count)
system.membus.snoopTraffic                          0                       # Total snoop traffic (bytes)
system.membus.snoop_fanout::samples              5638                       # Request fanout histogram
system.membus.snoop_fanout::mean                    0                       # Request fanout histogram
system.membus.snoop_fanout::stdev                   0                       # Request fanout histogram
system.membus.snoop_fanout::underflows              0      0.00%      0.00% # Request fanout histogram
system.membus.snoop_fanout::0                    5638    100.00%    100.00% # Request fanout histogram
system.membus.snoop_fanout::1                       0      0.00%    100.00% # Request fanout histogram
system.membus.snoop_fanout::overflows               0      0.00%    100.00% # Request fanout histogram
system.membus.snoop_fanout::min_value               0                       # Request fanout histogram
system.membus.snoop_fanout::max_value               0                       # Request fanout histogram
system.membus.snoop_fanout::total                5638                       # Request fanout histogram
system.membus.reqLayer0.occupancy            12418500                       # Layer occupancy (ticks)
system.membus.reqLayer0.utilization               1.0                       # Layer utilization (%)
system.membus.respLayer1.occupancy           29710750                       # Layer occupancy (ticks)
system.membus.respLayer1.utilization              2.5                       # Layer utilization (%)
system.membus.power_state.pwrStateResidencyTicks::UNDEFINED   1188482500                       # Cumulative time (in ticks) in various power states
system.tol2bus.trans_dist::ReadResp              2210                       # Transaction distribution
system.tol2bus.trans_dist::WritebackDirty         4377                       # Transaction distribution
system.tol2bus.trans_dist::WritebackClean          412                       # Transaction distribution
system.tol2bus.trans_dist::CleanEvict             925                       # Transaction distribution
system.tol2bus.trans_dist::ReadExReq             3587                       # Transaction distribution
system.tol2bus.trans_dist::ReadExResp            3587                       # Transaction distribution
system.tol2bus.trans_dist::ReadCleanReq           663                       # Transaction distribution
system.tol2bus.trans_dist::ReadSharedReq         1547                       # Transaction distribution
system.tol2bus.trans_dist::InvalidateReq            7                       # Transaction distribution
system.tol2bus.trans_dist::InvalidateResp            7                       # Transaction distribution
system.tol2bus.pkt_count_system.cpu.icache.mem_side::system.l2.cpu_side         1738                       # Packet count per connected master and slave (bytes)
system.tol2bus.pkt_count_system.cpu.dcache.mem_side::system.l2.cpu_side        14399                       # Packet count per connected master and slave (bytes)
system.tol2bus.pkt_count::total                 16137                       # Packet count per connected master and slave (bytes)
system.tol2bus.pkt_size_system.cpu.icache.mem_side::system.l2.cpu_side        68800                       # Cumulative packet size per connected master and slave (bytes)
system.tol2bus.pkt_size_system.cpu.dcache.mem_side::system.l2.cpu_side       534720                       # Cumulative packet size per connected master and slave (bytes)
system.tol2bus.pkt_size::total                 603520                       # Cumulative packet size per connected master and slave (bytes)
system.tol2bus.snoops                            1185                       # Total snoops (count)
system.tol2bus.snoopTraffic                     73984                       # Total snoop traffic (bytes)
system.tol2bus.snoop_fanout::samples             6989                       # Request fanout histogram
system.tol2bus.snoop_fanout::mean            0.002146                       # Request fanout histogram
system.tol2bus.snoop_fanout::stdev           0.046281                       # Request fanout histogram
system.tol2bus.snoop_fanout::underflows             0      0.00%      0.00% # Request fanout histogram
system.tol2bus.snoop_fanout::0                   6974     99.79%     99.79% # Request fanout histogram
system.tol2bus.snoop_fanout::1                     15      0.21%    100.00% # Request fanout histogram
system.tol2bus.snoop_fanout::2                      0      0.00%    100.00% # Request fanout histogram
system.tol2bus.snoop_fanout::overflows              0      0.00%    100.00% # Request fanout histogram
system.tol2bus.snoop_fanout::min_value              0                       # Request fanout histogram
system.tol2bus.snoop_fanout::max_value              1                       # Request fanout histogram
system.tol2bus.snoop_fanout::total               6989                       # Request fanout histogram
system.tol2bus.reqLayer0.occupancy            8799500                       # Layer occupancy (ticks)
system.tol2bus.reqLayer0.utilization              0.7                       # Layer utilization (%)
system.tol2bus.respLayer1.occupancy           7704500                       # Layer occupancy (ticks)
system.tol2bus.respLayer1.utilization             0.6                       # Layer utilization (%)
system.tol2bus.respLayer0.occupancy            994500                       # Layer occupancy (ticks)
system.tol2bus.respLayer0.utilization             0.1                       # Layer utilization (%)
system.tol2bus.power_state.pwrStateResidencyTicks::UNDEFINED   1188482500                       # Cumulative time (in ticks) in various power states
system.voltage_domain.voltage                       1                       # Voltage in Volts
system.clk_domain.clock                          1000                       # Clock period in ticks
system.l2.demand_hits::.cpu.inst                   97                       # number of demand (read+write) hits
system.l2.demand_hits::.cpu.data                   69                       # number of demand (read+write) hits
system.l2.demand_hits::total                      166                       # number of demand (read+write) hits
system.l2.overall_hits::.cpu.inst                  97                       # number of overall hits
system.l2.overall_hits::.cpu.data                  69                       # number of overall hits
system.l2.overall_hits::total                     166                       # number of overall hits
system.l2.demand_misses::.cpu.inst                566                       # number of demand (read+write) misses
system.l2.demand_misses::.cpu.data               5065                       # number of demand (read+write) misses
system.l2.demand_misses::total                   5631                       # number of demand (read+write) misses
system.l2.overall_misses::.cpu.inst               566                       # number of overall misses
system.l2.overall_misses::.cpu.data              5065                       # number of overall misses
system.l2.overall_misses::total                  5631                       # number of overall misses
system.l2.demand_miss_latency::.cpu.inst     43216500                       # number of demand (read+write) miss cycles
system.l2.demand_miss_latency::.cpu.data    398999000                       # number of demand (read+write) miss cycles
system.l2.demand_miss_latency::total        442215500                       # number of demand (read+write) miss cycles
system.l2.overall_miss_latency::.cpu.inst     43216500                       # number of overall miss cycles
system.l2.overall_miss_latency::.cpu.data    398999000                       # number of overall miss cycles
system.l2.overall_miss_latency::total       442215500                       # number of overall miss cycles
system.l2.demand_accesses::.cpu.inst              663                       # number of demand (read+write) accesses
system.l2.demand_accesses::.cpu.data             5134                       # number of demand (read+write) accesses
system.l2.demand_accesses::total                 5797                       # number of demand (read+write) accesses
system.l2.overall_accesses::.cpu.inst             663                       # number of overall (read+write) accesses
system.l2.overall_accesses::.cpu.data            5134                       # number of overall (read+write) accesses
system.l2.overall_accesses::total                5797                       # number of overall (read+write) accesses
system.l2.demand_miss_rate::.cpu.inst        0.853695                       # miss rate for demand accesses
system.l2.demand_miss_rate::.cpu.data        0.986560                       # miss rate for demand accesses
system.l2.demand_miss_rate::total            0.971364                       # miss rate for demand accesses
system.l2.overall_miss_rate::.cpu.inst       0.853695                       # miss rate for overall accesses
system.l2.overall_miss_rate::.cpu.data       0.986560                       # miss rate for overall accesses
system.l2.overall_miss_rate::total           0.971364                       # miss rate for overall accesses
system.l2.demand_avg_miss_latency::.cpu.inst 76354.240283                       # average overall miss latency
system.l2.demand_avg_miss_latency::.cpu.data 78775.715696                       # average overall miss latency
system.l2.demand_avg_miss_latency::total 78532.321080                       # average overall miss latency
system.l2.overall_avg_miss_latency::.cpu.inst 76354.240283                       # average overall miss latency
system.l2.overall_avg_miss_latency::.cpu.data 78775.715696                       # average overall miss latency
system.l2.overall_avg_miss_latency::total 78532.321080                       # average overall miss latency
system.l2.blocked_cycles::no_mshrs                  0                       # number of cycles access was blocked
system.l2.blocked_cycles::no_targets                0                       # number of cycles access was blocked
system.l2.blocked::no_mshrs                         0                       # number of cycles access was blocked
system.l2.blocked::no_targets                       0                       # number of cycles access was blocked
system.l2.avg_blocked_cycles::no_mshrs            nan                       # average number of cycles each access was blocked
system.l2.avg_blocked_cycles::no_targets          nan                       # average number of cycles each access was blocked
system.l2.writebacks::.writebacks                1156                       # number of writebacks
system.l2.writebacks::total                      1156                       # number of writebacks
system.l2.demand_mshr_misses::.cpu.inst           566                       # number of demand (read+write) MSHR misses
system.l2.demand_mshr_misses::.cpu.data          5065                       # number of demand (read+write) MSHR misses
system.l2.demand_mshr_misses::total              5631                       # number of demand (read+write) MSHR misses
system.l2.overall_mshr_misses::.cpu.inst          566                       # number of overall MSHR misses
system.l2.overall_mshr_misses::.cpu.data         5065                       # number of overall MSHR misses
system.l2.overall_mshr_misses::total             5631                       # number of overall MSHR misses
system.l2.demand_mshr_miss_latency::.cpu.inst     37556500                       # number of demand (read+write) MSHR miss cycles
system.l2.demand_mshr_miss_latency::.cpu.data    348349000                       # number of demand (read+write) MSHR miss cycles
system.l2.demand_mshr_miss_latency::total    385905500                       # number of demand (read+write) MSHR miss cycles
system.l2.overall_mshr_miss_latency::.cpu.inst     37556500                       # number of overall MSHR miss cycles
system.l2.overall_mshr_miss_latency::.cpu.data    348349000                       # number of overall MSHR miss cycles
system.l2.overall_mshr_miss_latency::total    385905500                       # number of overall MSHR miss cycles
system.l2.demand_mshr_miss_rate::.cpu.inst     0.853695                       # mshr miss rate for demand accesses
system.l2.demand_mshr_miss_rate::.cpu.data     0.986560                       # mshr miss rate for demand accesses
system.l2.demand_mshr_miss_rate::total       0.971364                       # mshr miss rate for demand accesses
system.l2.overall_mshr_miss_rate::.cpu.inst     0.853695                       # mshr miss rate for overall accesses
system.l2.overall_mshr_miss_rate::.cpu.data     0.986560                       # mshr miss rate for overall accesses
system.l2.overall_mshr_miss_rate::total      0.971364                       # mshr miss rate for overall accesses
system.l2.demand_avg_mshr_miss_latency::.cpu.inst 66354.240283                       # average overall mshr miss latency
system.l2.demand_avg_mshr_miss_latency::.cpu.data 68775.715696                       # average overall mshr miss latency
system.l2.demand_avg_mshr_miss_latency::total 68532.321080                       # average overall mshr miss latency
system.l2.overall_avg_mshr_miss_latency::.cpu.inst 66354.240283                       # average overall mshr miss latency
system.l2.overall_avg_mshr_miss_latency::.cpu.data 68775.715696                       # average overall mshr miss latency
system.l2.overall_avg_mshr_miss_latency::total 68532.321080                       # average overall mshr miss latency
system.l2.replacements                           1185                       # number of replacements
system.l2.WritebackDirty_hits::.writebacks         3221                       # number of WritebackDirty hits
system.l2.WritebackDirty_hits::total             3221                       # number of WritebackDirty hits
system.l2.WritebackDirty_accesses::.writebacks         3221                       # number of WritebackDirty accesses(hits+misses)
system.l2.WritebackDirty_accesses::total         3221                       # number of WritebackDirty accesses(hits+misses)
system.l2.WritebackClean_hits::.writebacks          412                       # number of WritebackClean hits
system.l2.WritebackClean_hits::total              412                       # number of WritebackClean hits
system.l2.WritebackClean_accesses::.writebacks          412                       # number of WritebackClean accesses(hits+misses)
system.l2.WritebackClean_accesses::total          412                       # number of WritebackClean accesses(hits+misses)
system.l2.ReadExReq_hits::.cpu.data                27                       # number of ReadExReq hits
system.l2.ReadExReq_hits::total                    27                       # number of ReadExReq hits
system.l2.ReadExReq_misses::.cpu.data            3560                       # number of ReadExReq misses
system.l2.ReadExReq_misses::total                3560                       # number of ReadExReq misses
system.l2.ReadExReq_miss_latency::.cpu.data    287036500                       # number of ReadExReq miss cycles
system.l2.ReadExReq_miss_latency::total     287036500                       # number of ReadExReq miss cycles
system.l2.ReadExReq_accesses::.cpu.data          3587                       # number of ReadExReq accesses(hits+misses)
system.l2.ReadExReq_accesses::total              3587                       # number of ReadExReq accesses(hits+misses)
system.l2.ReadExReq_miss_rate::.cpu.data     0.992473                       # miss rate for ReadExReq accesses
system.l2.ReadExReq_miss_rate::total         0.992473                       # miss rate for ReadExReq accesses
system.l2.ReadExReq_avg_miss_latency::.cpu.data 80628.230337                       # average ReadExReq miss latency
system.l2.ReadExReq_avg_miss_latency::total 80628.230337                       # average ReadExReq miss latency
system.l2.ReadExReq_mshr_misses::.cpu.data         3560                       # number of ReadExReq MSHR misses
system.l2.ReadExReq_mshr_misses::total           3560                       # number of ReadExReq MSHR misses
system.l2.ReadExReq_mshr_miss_latency::.cpu.data    251436500                       # number of ReadExReq MSHR miss cycles
system.l2.ReadExReq_mshr_miss_latency::total    251436500                       # number of ReadExReq MSHR miss cycles
system.l2.ReadExReq_mshr_miss_rate::.cpu.data     0.992473                       # mshr miss rate for ReadExReq accesses
system.l2.ReadExReq_mshr_miss_rate::total     0.992473                       # mshr miss rate for ReadExReq accesses
system.l2.ReadExReq_avg_mshr_miss_latency::.cpu.data 70628.230337                       # average ReadExReq mshr miss latency
system.l2.ReadExReq_avg_mshr_miss_latency::total 70628.230337                       # average ReadExReq mshr miss latency
system.l2.ReadCleanReq_hits::.cpu.inst             97                       # number of ReadCleanReq hits
system.l2.ReadCleanReq_hits::total                 97                       # number of ReadCleanReq hits
system.l2.ReadCleanReq_misses::.cpu.inst          566                       # number of ReadCleanReq misses
system.l2.ReadCleanReq_misses::total              566                       # number of ReadCleanReq misses
system.l2.ReadCleanReq_miss_latency::.cpu.inst     43216500                       # number of ReadCleanReq miss cycles
system.l2.ReadCleanReq_miss_latency::total     43216500                       # number of ReadCleanReq miss cycles
system.l2.ReadCleanReq_accesses::.cpu.inst          663                       # number of ReadCleanReq accesses(hits+misses)
system.l2.ReadCleanReq_accesses::total            663                       # number of ReadCleanReq accesses(hits+misses)
system.l2.ReadCleanReq_miss_rate::.cpu.inst     0.853695                       # miss rate for ReadCleanReq accesses
system.l2.ReadCleanReq_miss_rate::total      0.853695                       # miss rate for ReadCleanReq accesses
system.l2.ReadCleanReq_avg_miss_latency::.cpu.inst 76354.240283                       # average ReadCleanReq miss latency
system.l2.ReadCleanReq_avg_miss_latency::total 76354.240283                       # average ReadCleanReq miss latency
system.l2.ReadCleanReq_mshr_misses::.cpu.inst          566                       # number of ReadCleanReq MSHR misses
system.l2.ReadCleanReq_mshr_misses::total          566                       # number of ReadCleanReq MSHR misses
system.l2.ReadCleanReq_mshr_miss_latency::.cpu.inst     37556500                       # number of ReadCleanReq MSHR miss cycles
system.l2.ReadCleanReq_mshr_miss_latency::total     37556500                       # number of ReadCleanReq MSHR miss cycles
system.l2.ReadCleanReq_mshr_miss_rate::.cpu.inst     0.853695                       # mshr miss rate for ReadCleanReq accesses
system.l2.ReadCleanReq_mshr_miss_rate::total     0.853695                       # mshr miss rate for ReadCleanReq accesses
system.l2.ReadCleanReq_avg_mshr_miss_latency::.cpu.inst 66354.240283                       # average ReadCleanReq mshr miss latency
system.l2.ReadCleanReq_avg_mshr_miss_latency::total 66354.240283                       # average ReadCleanReq mshr miss latency
system.l2.ReadSharedReq_hits::.cpu.data            42                       # number of ReadSharedReq hits
system.l2.ReadSharedReq_hits::total                42                       # number of ReadSharedReq hits
system.l2.ReadSharedReq_misses::.cpu.data         1505                       # number of ReadSharedReq misses
system.l2.ReadSharedReq_misses::total            1505                       # number of ReadSharedReq misses
system.l2.ReadSharedReq_miss_latency::.cpu.data    111962500                       # number of ReadSharedReq miss cycles
system.l2.ReadSharedReq_miss_latency::total    111962500                       # number of ReadSharedReq miss cycles
system.l2.ReadSharedReq_accesses::.cpu.data         1547                       # number of ReadSharedReq accesses(hits+misses)
system.l2.ReadSharedReq_accesses::total          1547                       # number of ReadSharedReq accesses(hits+misses)
system.l2.ReadSharedReq_miss_rate::.cpu.data     0.972851                       # miss rate for ReadSharedReq accesses
system.l2.ReadSharedReq_miss_rate::total     0.972851                       # miss rate for ReadSharedReq accesses
system.l2.ReadSharedReq_avg_miss_latency::.cpu.data 74393.687708                       # average ReadSharedReq miss latency
system.l2.ReadSharedReq_avg_miss_latency::total 74393.687708                       # average ReadSharedReq miss latency
system.l2.ReadSharedReq_mshr_misses::.cpu.data         1505                       # number of ReadSharedReq MSHR misses
system.l2.ReadSharedReq_mshr_misses::total         1505                       # number of ReadSharedReq MSHR misses
system.l2.ReadSharedReq_mshr_miss_latency::.cpu.data     96912500                       # number of ReadSharedReq MSHR miss cycles
system.l2.ReadSharedReq_mshr_miss_latency::total     96912500                       # number of ReadSharedReq MSHR miss cycles
system.l2.ReadSharedReq_mshr_miss_rate::.cpu.data     0.972851                       # mshr miss rate for ReadSharedReq accesses
system.l2.ReadSharedReq_mshr_miss_rate::total     0.972851                       # mshr miss rate for ReadSharedReq accesses
system.l2.ReadSharedReq_avg_mshr_miss_latency::.cpu.data 64393.687708                       # average ReadSharedReq mshr miss latency
system.l2.ReadSharedReq_avg_mshr_miss_latency::total 64393.687708                       # average ReadSharedReq mshr miss latency
system.l2.InvalidateReq_misses::.cpu.data            7                       # number of InvalidateReq misses
system.l2.InvalidateReq_misses::total               7                       # number of InvalidateReq misses
system.l2.InvalidateReq_accesses::.cpu.data            7                       # number of InvalidateReq accesses(hits+misses)
system.l2.InvalidateReq_accesses::total             7                       # number of InvalidateReq accesses(hits+misses)
system.l2.InvalidateReq_miss_rate::.cpu.data            1                       # miss rate for InvalidateReq accesses
system.l2.InvalidateReq_miss_rate::total            1                       # miss rate for InvalidateReq accesses
system.l2.InvalidateReq_mshr_misses::.cpu.data            7                       # number of InvalidateReq MSHR misses
system.l2.InvalidateReq_mshr_misses::total            7                       # number of InvalidateReq MSHR misses
system.l2.InvalidateReq_mshr_miss_latency::.cpu.data       134500                       # number of InvalidateReq MSHR miss cycles
system.l2.InvalidateReq_mshr_miss_latency::total       134500                       # number of InvalidateReq MSHR miss cycles
system.l2.InvalidateReq_mshr_miss_rate::.cpu.data            1                       # mshr miss rate for InvalidateReq accesses
system.l2.InvalidateReq_mshr_miss_rate::total            1                       # mshr miss rate for InvalidateReq accesses
system.l2.InvalidateReq_avg_mshr_miss_latency::.cpu.data 19214.285714                       # average InvalidateReq mshr miss latency
system.l2.InvalidateReq_avg_mshr_miss_latency::total 19214.285714                       # average InvalidateReq mshr miss latency
system.l2.power_state.pwrStateResidencyTicks::UNDEFINED   1188482500                       # Cumulative time (in ticks) in various power states
system.l2.tags.tagsinuse                  3675.564509                       # Cycle average of tags in use
system.l2.tags.total_refs                       10325                       # Total number of references to valid blocks.
system.l2.tags.sampled_refs                      5647                       # Sample count of references to valid blocks.
system.l2.tags.avg_refs                      1.828404                       # Average number of references to valid blocks.
system.l2.tags.warmup_cycle                     77000                       # Cycle when the warmup percentage was hit.
system.l2.tags.occ_blocks::.writebacks      12.147032                       # Average occupied blocks per requestor
system.l2.tags.occ_blocks::.cpu.inst       500.474398                       # Average occupied blocks per requestor
system.l2.tags.occ_blocks::.cpu.data      3162.943079                       # Average occupied blocks per requestor
system.l2.tags.occ_percent::.writebacks      0.000371                       # Average percentage of cache occupancy
system.l2.tags.occ_percent::.cpu.inst        0.015273                       # Average percentage of cache occupancy
system.l2.tags.occ_percent::.cpu.data        0.096525                       # Average percentage of cache occupancy
system.l2.tags.occ_percent::total            0.112169                       # Average percentage of cache occupancy
system.l2.tags.occ_task_id_blocks::1024          4462                       # Occupied blocks per task id
system.l2.tags.age_task_id_blocks_1024::0            5                       # Occupied blocks per task id
system.l2.tags.age_task_id_blocks_1024::1          113                       # Occupied blocks per task id
system.l2.tags.age_task_id_blocks_1024::2         1762                       # Occupied blocks per task id
system.l2.tags.age_task_id_blocks_1024::3         2582                       # Occupied blocks per task id
system.l2.tags.occ_task_id_percent::1024     0.136169                       # Percentage of cache occupancy per task id
system.l2.tags.tag_accesses                     88303                       # Number of tag accesses
system.l2.tags.data_accesses                    88303                       # Number of data accesses
system.l2.tags.power_state.pwrStateResidencyTicks::UNDEFINED   1188482500                       # Cumulative time (in ticks) in various power states
system.cpu_voltage_domain.voltage                   1                       # Voltage in Volts
system.mem_ctrls.bytes_read::.cpu.inst          36224                       # Number of bytes read from this memory
system.mem_ctrls.bytes_read::.cpu.data         324160                       # Number of bytes read from this memory
system.mem_ctrls.bytes_read::total             360384                       # Number of bytes read from this memory
system.mem_ctrls.bytes_inst_read::.cpu.inst        36224                       # Number of instructions bytes read from this memory
system.mem_ctrls.bytes_inst_read::total         36224                       # Number of instructions bytes read from this memory
system.mem_ctrls.bytes_written::.writebacks        73984                       # Number of bytes written to this memory
system.mem_ctrls.bytes_written::total           73984                       # Number of bytes written to this memory
system.mem_ctrls.num_reads::.cpu.inst             566                       # Number of read requests responded to by this memory
system.mem_ctrls.num_reads::.cpu.data            5065                       # Number of read requests responded to by this memory
system.mem_ctrls.num_reads::total                5631                       # Number of read requests responded to by this memory
system.mem_ctrls.num_writes::.writebacks         1156                       # Number of write requests responded to by this memory
system.mem_ctrls.num_writes::total               1156                       # Number of write requests responded to by this memory
system.mem_ctrls.bw_read::.cpu.inst          30479204                       # Total read bandwidth from this memory (bytes/s)
system.mem_ctrls.bw_read::.cpu.data         272751176                       # Total read bandwidth from this memory (bytes/s)
system.mem_ctrls.bw_read::total             303230380                       # Total read bandwidth from this memory (bytes/s)
system.mem_ctrls.bw_inst_read::.cpu.inst     30479204                       # Instruction read bandwidth from this memory (bytes/s)
system.mem_ctrls.bw_inst_read::total         30479204                       # Instruction read bandwidth from this memory (bytes/s)
system.mem_ctrls.bw_write::.writebacks       62250811                       # Write bandwidth from this memory (bytes/s)
system.mem_ctrls.bw_write::total             62250811                       # Write bandwidth from this memory (bytes/s)
system.mem_ctrls.bw_total::.writebacks       62250811                       # Total bandwidth to/from this memory (bytes/s)
system.mem_ctrls.bw_total::.cpu.inst         30479204                       # Total bandwidth to/from this memory (bytes/s)
system.mem_ctrls.bw_total::.cpu.data        272751176                       # Total bandwidth to/from this memory (bytes/s)
system.mem_ctrls.bw_total::total            365481191                       # Total bandwidth to/from this memory (bytes/s)
system.mem_ctrls.avgPriority_.writebacks::samples      1156.00                       # Average QoS priority value for accepted requests
system.mem_ctrls.avgPriority_.cpu.inst::samples       566.00                       # Average QoS priority value for accepted requests
system.mem_ctrls.avgPriority_.cpu.data::samples      5065.00                       # Average QoS priority value for accepted requests
system.mem_ctrls.priorityMinLatency      0.000000018750                       # per QoS priority minimum request to response latency (s)
system.mem_ctrls.priorityMaxLatency      0.001427534500                       # per QoS priority maximum request to response latency (s)
system.mem_ctrls.numReadWriteTurnArounds           70                       # Number of turnarounds from READ to WRITE
system.mem_ctrls.numWriteReadTurnArounds           70                       # Number of turnarounds from WRITE to READ
system.mem_ctrls.numStayReadState               12516                       # Number of times bus staying in READ state
system.mem_ctrls.numStayWriteState               1057                       # Number of times bus staying in WRITE state
system.mem_ctrls.readReqs                        5631                       # Number of read requests accepted
system.mem_ctrls.writeReqs                       1156                       # Number of write requests accepted
system.mem_ctrls.readBursts                      5631                       # Number of DRAM read bursts, including those serviced by the write queue
system.mem_ctrls.writeBursts                     1156                       # Number of DRAM write bursts, including those merged in the write queue
system.mem_ctrls.servicedByWrQ                      0                       # Number of DRAM read bursts serviced by the write queue
system.mem_ctrls.mergedWrBursts                     0                       # Number of DRAM write bursts merged with an existing one
system.mem_ctrls.neitherReadNorWriteReqs            0                       # Number of requests that are neither read nor write
system.mem_ctrls.perBankRdBursts::0               332                       # Per bank write bursts
system.mem_ctrls.perBankRdBursts::1               348                       # Per bank write bursts
system.mem_ctrls.perBankRdBursts::2               366                       # Per bank write bursts
system.mem_ctrls.perBankRdBursts::3               340                       # Per bank write bursts
system.mem_ctrls.perBankRdBursts::4               297                       # Per bank write bursts
system.mem_ctrls.perBankRdBursts::5               358                       # Per bank write bursts
system.mem_ctrls.perBankRdBursts::6               411                       # Per bank write bursts
system.mem_ctrls.perBankRdBursts::7               353                       # Per bank write bursts
system.mem_ctrls.perBankRdBursts::8               421                       # Per bank write bursts
system.mem_ctrls.perBankRdBursts::9               446                       # Per bank write bursts
system.mem_ctrls.perBankRdBursts::10              431                       # Per bank write bursts
system.mem_ctrls.perBankRdBursts::11              396                       # Per bank write bursts
system.mem_ctrls.perBankRdBursts::12              308                       # Per bank write bursts
system.mem_ctrls.perBankRdBursts::13              264                       # Per bank write bursts
system.mem_ctrls.perBankRdBursts::14              287                       # Per bank write bursts
system.mem_ctrls.perBankRdBursts::15              273                       # Per bank write bursts
system.mem_ctrls.perBankWrBursts::0                66                       # Per bank write bursts
system.mem_ctrls.perBankWrBursts::1                69                       # Per bank write bursts
system.mem_ctrls.perBankWrBursts::2                78                       # Per bank write bursts
system.mem_ctrls.perBankWrBursts::3                75                       # Per bank write bursts
system.mem_ctrls.perBankWrBursts::4                69                       # Per bank write bursts
system.mem_ctrls.perBankWrBursts::5                70                       # Per bank write bursts
system.mem_ctrls.perBankWrBursts::6                70                       # Per bank write bursts
system.mem_ctrls.perBankWrBursts::7                73                       # Per bank write bursts
system.mem_ctrls.perBankWrBursts::8                75                       # Per bank write bursts
system.mem_ctrls.perBankWrBursts::9                70                       # Per bank write bursts
system.mem_ctrls.perBankWrBursts::10               67                       # Per bank write bursts
system.mem_ctrls.perBankWrBursts::11               65                       # Per bank write bursts
system.mem_ctrls.perBankWrBursts::12               68                       # Per bank write bursts
system.mem_ctrls.perBankWrBursts::13               72                       # Per bank write bursts
system.mem_ctrls.perBankWrBursts::14               75                       # Per bank write bursts
system.mem_ctrls.perBankWrBursts::15               65                       # Per bank write bursts
system.mem_ctrls.avgRdQLen                       1.11                       # Average read queue length when enqueuing
system.mem_ctrls.avgWrQLen                      21.15                       # Average write queue length when enqueuing
system.mem_ctrls.totQLat                     49367000                       # Total ticks spent queuing
system.mem_ctrls.totBusLat                   28155000                       # Total ticks spent in databus transfers
system.mem_ctrls.totMemAccLat               154948250                       # Total ticks spent from burst creation until serviced by the DRAM
system.mem_ctrls.avgQLat                      8767.00                       # Average queueing delay per DRAM burst
system.mem_ctrls.avgBusLat                    5000.00                       # Average bus latency per DRAM burst
system.mem_ctrls.avgMemAccLat                27517.00                       # Average memory access latency per DRAM burst
system.mem_ctrls.numRdRetry                         0                       # Number of times read queue was full causing retry
system.mem_ctrls.numWrRetry                         0                       # Number of times write queue was full causing retry
system.mem_ctrls.readRowHits                     4761                       # Number of row buffer hits during reads
system.mem_ctrls.writeRowHits                     944                       # Number of row buffer hits during writes
system.mem_ctrls.readRowHitRate                 84.55                       # Row buffer hit rate for reads
system.mem_ctrls.writeRowHitRate                81.66                       # Row buffer hit rate for writes
system.mem_ctrls.readPktSize::0                     0                       # Read request sizes (log2)
system.mem_ctrls.readPktSize::1                     0                       # Read request sizes (log2)
system.mem_ctrls.readPktSize::2                     0                       # Read request sizes (log2)
system.mem_ctrls.readPktSize::3                     0                       # Read request sizes (log2)
system.mem_ctrls.readPktSize::4                     0                       # Read request sizes (log2)
system.mem_ctrls.readPktSize::5                     0                       # Read request sizes (log2)
system.mem_ctrls.readPktSize::6                  5631                       # Read request sizes (log2)
system.mem_ctrls.writePktSize::0                    0                       # Write request sizes (log2)
system.mem_ctrls.writePktSize::1                    0                       # Write request sizes (log2)
system.mem_ctrls.writePktSize::2                    0                       # Write request sizes (log2)
system.mem_ctrls.writePktSize::3                    0                       # Write request sizes (log2)
system.mem_ctrls.writePktSize::4                    0                       # Write request sizes (log2)
system.mem_ctrls.writePktSize::5                    0                       # Write request sizes (log2)
system.mem_ctrls.writePktSize::6                 1156                       # Write request sizes (log2)
system.mem_ctrls.rdQLenPdf::0                    4019                       # What read queue length does an incoming req see
system.mem_ctrls.rdQLenPdf::1                    1601                       # What read queue length does an incoming req see
system.mem_ctrls.rdQLenPdf::2                      11                       # What read queue length does an incoming req see
system.mem_ctrls.rdQLenPdf::3                       0                       # What read queue length does an incoming req see
system.mem_ctrls.rdQLenPdf::4                       0                       # What read queue length does an incoming req see
system.mem_ctrls.rdQLenPdf::5                       0                       # What read queue length does an incoming req see
system.mem_ctrls.rdQLenPdf::6                       0                       # What read queue length does an incoming req see
system.mem_ctrls.rdQLenPdf::7                       0                       # What read queue length does an incoming req see
system.mem_ctrls.rdQLenPdf::8                       0                       # What read queue length does an incoming req see
system.mem_ctrls.rdQLenPdf::9                       0                       # What read queue length does an incoming req see
system.mem_ctrls.rdQLenPdf::10                      0                       # What read queue length does an incoming req see
system.mem_ctrls.rdQLenPdf::11                      0                       # What read queue length does an incoming req see
system.mem_ctrls.rdQLenPdf::12                      0                       # What read queue length does an incoming req see
system.mem_ctrls.rdQLenPdf::13                      0                       # What read queue length does an incoming req see
system.mem_ctrls.rdQLenPdf::14                      0                       # What read queue length does an incoming req see
system.mem_ctrls.rdQLenPdf::15                      0                       # What read queue length does an incoming req see
system.mem_ctrls.rdQLenPdf::16                      0                       # What read queue length does an incoming req see
system.mem_ctrls.rdQLenPdf::17                      0                       # What read queue length does an incoming req see
system.mem_ctrls.rdQLenPdf::18                      0                       # What read queue length does an incoming req see
system.mem_ctrls.rdQLenPdf::19                      0                       # What read queue length does an incoming req see
system.mem_ctrls.rdQLenPdf::20                      0                       # What read queue length does an incoming req see
system.mem_ctrls.rdQLenPdf::21                      0                       # What read queue length does an incoming req see
system.mem_ctrls.rdQLenPdf::22                      0                       # What read queue length does an incoming req see
system.mem_ctrls.rdQLenPdf::23                      0                       # What read queue length does an incoming req see
system.mem_ctrls.rdQLenPdf::24                      0                       # What read queue length does an incoming req see
system.mem_ctrls.rdQLenPdf::25                      0                       # What read queue length does an incoming req see
system.mem_ctrls.rdQLenPdf::26                      0                       # What read queue length does an incoming req see
system.mem_ctrls.rdQLenPdf::27                      0                       # What read queue length does an incoming req see
system.mem_ctrls.rdQLenPdf::28                      0                       # What read queue length does an incoming req see
system.mem_ctrls.rdQLenPdf::29                      0                       # What read queue length does an incoming req see
system.mem_ctrls.rdQLenPdf::30                      0                       # What read queue length does an incoming req see
system.mem_ctrls.rdQLenPdf::31                      0                       # What read queue length does an incoming req see
system.mem_ctrls.wrQLenPdf::0                       1                       # What write queue length does an incoming req see
system.mem_ctrls.wrQLenPdf::1                       1                       # What write queue length does an incoming req see
system.mem_ctrls.wrQLenPdf::2                       1                       # What write queue length does an incoming req see
system.mem_ctrls.wrQLenPdf::3                       1                       # What write queue length does an incoming req see
system.mem_ctrls.wrQLenPdf::4                       1                       # What write queue length does an incoming req see
system.mem_ctrls.wrQLenPdf::5                       1                       # What write queue length does an incoming req see
system.mem_ctrls.wrQLenPdf::6                       1                       # What write queue length does an incoming req see
system.mem_ctrls.wrQLenPdf::7                       1                       # What write queue length does an incoming req see
system.mem_ctrls.wrQLenPdf::8                       1                       # What write queue length does an incoming req see
system.mem_ctrls.wrQLenPdf::9                       1                       # What write queue length does an incoming req see
system.mem_ctrls.wrQLenPdf::10                      1                       # What write queue length does an incoming req see
system.mem_ctrls.wrQLenPdf::11                      1                       # What write queue length does an incoming req see
system.mem_ctrls.wrQLenPdf::12                      1                       # What write queue length does an incoming req see
system.mem_ctrls.wrQLenPdf::13                      1                       # What write queue length does an incoming req see
system.mem_ctrls.wrQLenPdf::14                      1                       # What write queue length does an incoming req see
system.mem_ctrls.wrQLenPdf::15                      1                       # What write queue length does an incoming req see
system.mem_ctrls.wrQLenPdf::16                      3                       # What write queue length does an incoming req see
system.mem_ctrls.wrQLenPdf::17                     47                       # What write queue length does an incoming req see
system.mem_ctrls.wrQLenPdf::18                     73                       # What write queue length does an incoming req see
system.mem_ctrls.wrQLenPdf::19                     75                       # What write queue length does an incoming req see
system.mem_ctrls.wrQLenPdf::20                     71                       # What write queue length does an incoming req see
system.mem_ctrls.wrQLenPdf::21                     72                       # What write queue length does an incoming req see
system.mem_ctrls.wrQLenPdf::22                     79                       # What write queue length does an incoming req see
system.mem_ctrls.wrQLenPdf::23                     72                       # What write queue length does an incoming req see
system.mem_ctrls.wrQLenPdf::24                     71                       # What write queue length does an incoming req see
system.mem_ctrls.wrQLenPdf::25                     71                       # What write queue length does an incoming req see
system.mem_ctrls.wrQLenPdf::26                     72                       # What write queue length does an incoming req see
system.mem_ctrls.wrQLenPdf::27                     73                       # What write queue length does an incoming req see
system.mem_ctrls.wrQLenPdf::28                     71                       # What write queue length does an incoming req see
system.mem_ctrls.wrQLenPdf::29                     71                       # What write queue length does an incoming req see
system.mem_ctrls.wrQLenPdf::30                     70                       # What write queue length does an incoming req see
system.mem_ctrls.wrQLenPdf::31                     78                       # What write queue length does an incoming req see
system.mem_ctrls.wrQLenPdf::32                     70                       # What write queue length does an incoming req see
system.mem_ctrls.wrQLenPdf::33                      1                       # What write queue length does an incoming req see
system.mem_ctrls.wrQLenPdf::34                      0                       # What write queue length does an incoming req see
system.mem_ctrls.wrQLenPdf::35                      0                       # What write queue length does an incoming req see
system.mem_ctrls.wrQLenPdf::36                      0                       # What write queue length does an incoming req see
system.mem_ctrls.wrQLenPdf::37                      0                       # What write queue length does an incoming req see
system.mem_ctrls.wrQLenPdf::38                      0                       # What write queue length does an incoming req see
system.mem_ctrls.wrQLenPdf::39                      0                       # What write queue length does an incoming req see
system.mem_ctrls.wrQLenPdf::40                      0                       # What write queue length does an incoming req see
system.mem_ctrls.wrQLenPdf::41                      0                       # What write queue length does an incoming req see
system.mem_ctrls.wrQLenPdf::42                      0                       # What write queue length does an incoming req see
system.mem_ctrls.wrQLenPdf::43                      0                       # What write queue length does an incoming req see
system.mem_ctrls.wrQLenPdf::44                      0                       # What write queue length does an incoming req see
system.mem_ctrls.wrQLenPdf::45                      0                       # What write queue length does an incoming req see
system.mem_ctrls.wrQLenPdf::46                      0                       # What write queue length does an incoming req see
system.mem_ctrls.wrQLenPdf::47                      0                       # What write queue length does an incoming req see
system.mem_ctrls.wrQLenPdf::48                      0                       # What write queue length does an incoming req see
system.mem_ctrls.wrQLenPdf::49                      0                       # What write queue length does an incoming req see
system.mem_ctrls.wrQLenPdf::50                      0                       # What write queue length does an incoming req see
system.mem_ctrls.wrQLenPdf::51                      0                       # What write queue length does an incoming req see
system.mem_ctrls.wrQLenPdf::52                      0                       # What write queue length does an incoming req see
system.mem_ctrls.wrQLenPdf::53                      0                       # What write queue length does an incoming req see
system.mem_ctrls.wrQLenPdf::54                      0                       # What write queue length does an incoming req see
system.mem_ctrls.wrQLenPdf::55                      0                       # What write queue length does an incoming req see
system.mem_ctrls.wrQLenPdf::56                      0                       # What write queue length does an incoming req see
system.mem_ctrls.wrQLenPdf::57                      0                       # What write queue length does an incoming req see
system.mem_ctrls.wrQLenPdf::58                      0                       # What write queue length does an incoming req see
system.mem_ctrls.wrQLenPdf::59                      0                       # What write queue length does an incoming req see
system.mem_ctrls.wrQLenPdf::60                      0                       # What write queue length does an incoming req see
system.mem_ctrls.wrQLenPdf::61                      0                       # What write queue length does an incoming req see
system.mem_ctrls.wrQLenPdf::62                      0                       # What write queue length does an incoming req see
system.mem_ctrls.wrQLenPdf::63                      0                       # What write queue length does an incoming req see
system.mem_ctrls.bytesPerActivate::samples         1052                       # Bytes accessed per row activation
system.mem_ctrls.bytesPerActivate::mean    411.011407                       # Bytes accessed per row activation
system.mem_ctrls.bytesPerActivate::gmean   337.152379                       # Bytes accessed per row activation
system.mem_ctrls.bytesPerActivate::stdev   205.809580                       # Bytes accessed per row activation
system.mem_ctrls.bytesPerActivate::0-127          109     10.36%     10.36% # Bytes accessed per row activation
system.mem_ctrls.bytesPerActivate::128-255          156     14.83%     25.19% # Bytes accessed per row activation
system.mem_ctrls.bytesPerActivate::256-383           86      8.17%     33.37% # Bytes accessed per row activation
system.mem_ctrls.bytesPerActivate::384-511           35      3.33%     36.69% # Bytes accessed per row activation
system.mem_ctrls.bytesPerActivate::512-639          613     58.27%     94.96% # Bytes accessed per row activation
system.mem_ctrls.bytesPerActivate::640-767           14      1.33%     96.29% # Bytes accessed per row activation
system.mem_ctrls.bytesPerActivate::768-895            5      0.48%     96.77% # Bytes accessed per row activation
system.mem_ctrls.bytesPerActivate::896-1023            7      0.67%     97.43% # Bytes accessed per row activation
system.mem_ctrls.bytesPerActivate::1024-1151           27      2.57%    100.00% # Bytes accessed per row activation
system.mem_ctrls.bytesPerActivate::total         1052                       # Bytes accessed per row activation
system.mem_ctrls.rdPerTurnAround::samples           70                       # Reads before turning the bus around for writes
system.mem_ctrls.rdPerTurnAround::mean      77.442857                       # Reads before turning the bus around for writes
system.mem_ctrls.rdPerTurnAround::gmean     22.047513                       # Reads before turning the bus around for writes
system.mem_ctrls.rdPerTurnAround::stdev    321.769322                       # Reads before turning the bus around for writes
[...]
system.cpu.icache.tags.tag_accesses            725477                       # Number of tag accesses
system.cpu.icache.tags.data_accesses           725477                       # Number of data accesses
system.cpu.icache.tags.power_state.pwrStateResidencyTicks::UNDEFINED   1188482500                       # Cumulative time (in ticks) in various power states
system.cpu.dtb.walker.power_state.pwrStateResidencyTicks::UNDEFINED   1188482500                       # Cumulative time (in ticks) in various power states
system.cpu.dtb.stage2_mmu.stage2_tlb.walker.power_state.pwrStateResidencyTicks::UNDEFINED   1188482500                       # Cumulative time (in ticks) in various power states
system.cpu.dcache.demand_hits::.cpu.data       572617                       # number of demand (read+write) hits
system.cpu.dcache.demand_hits::total           572617                       # number of demand (read+write) hits
system.cpu.dcache.overall_hits::.cpu.data       572633                       # number of overall hits
system.cpu.dcache.overall_hits::total          572633                       # number of overall hits
system.cpu.dcache.demand_misses::.cpu.data         5597                       # number of demand (read+write) misses
system.cpu.dcache.demand_misses::total           5597                       # number of demand (read+write) misses
system.cpu.dcache.overall_misses::.cpu.data         5600                       # number of overall misses
system.cpu.dcache.overall_misses::total          5600                       # number of overall misses
system.cpu.dcache.demand_miss_latency::.cpu.data    437919000                       # number of demand (read+write) miss cycles
system.cpu.dcache.demand_miss_latency::total    437919000                       # number of demand (read+write) miss cycles
system.cpu.dcache.overall_miss_latency::.cpu.data    437919000                       # number of overall miss cycles
system.cpu.dcache.overall_miss_latency::total    437919000                       # number of overall miss cycles
system.cpu.dcache.demand_accesses::.cpu.data       578214                       # number of demand (read+write) accesses
system.cpu.dcache.demand_accesses::total       578214                       # number of demand (read+write) accesses
system.cpu.dcache.overall_accesses::.cpu.data       578233                       # number of overall (read+write) accesses
system.cpu.dcache.overall_accesses::total       578233                       # number of overall (read+write) accesses
system.cpu.dcache.demand_miss_rate::.cpu.data     0.009680                       # miss rate for demand accesses
system.cpu.dcache.demand_miss_rate::total     0.009680                       # miss rate for demand accesses
system.cpu.dcache.overall_miss_rate::.cpu.data     0.009685                       # miss rate for overall accesses
system.cpu.dcache.overall_miss_rate::total     0.009685                       # miss rate for overall accesses
system.cpu.dcache.demand_avg_miss_latency::.cpu.data 78241.736645                       # average overall miss latency
system.cpu.dcache.demand_avg_miss_latency::total 78241.736645                       # average overall miss latency
system.cpu.dcache.overall_avg_miss_latency::.cpu.data 78199.821429                       # average overall miss latency
system.cpu.dcache.overall_avg_miss_latency::total 78199.821429                       # average overall miss latency
system.cpu.dcache.blocked_cycles::no_mshrs            0                       # number of cycles access was blocked
system.cpu.dcache.blocked_cycles::no_targets            0                       # number of cycles access was blocked
system.cpu.dcache.blocked::no_mshrs                 0                       # number of cycles access was blocked
system.cpu.dcache.blocked::no_targets               0                       # number of cycles access was blocked
system.cpu.dcache.avg_blocked_cycles::no_mshrs          nan                       # average number of cycles each access was blocked
system.cpu.dcache.avg_blocked_cycles::no_targets          nan                       # average number of cycles each access was blocked
system.cpu.dcache.writebacks::.writebacks         3221                       # number of writebacks
system.cpu.dcache.writebacks::total              3221                       # number of writebacks
system.cpu.dcache.demand_mshr_hits::.cpu.data          459                       # number of demand (read+write) MSHR hits
system.cpu.dcache.demand_mshr_hits::total          459                       # number of demand (read+write) MSHR hits
system.cpu.dcache.overall_mshr_hits::.cpu.data          459                       # number of overall MSHR hits
system.cpu.dcache.overall_mshr_hits::total          459                       # number of overall MSHR hits
system.cpu.dcache.demand_mshr_misses::.cpu.data         5138                       # number of demand (read+write) MSHR misses
system.cpu.dcache.demand_mshr_misses::total         5138                       # number of demand (read+write) MSHR misses
system.cpu.dcache.overall_mshr_misses::.cpu.data         5141                       # number of overall MSHR misses
system.cpu.dcache.overall_mshr_misses::total         5141                       # number of overall MSHR misses
system.cpu.dcache.demand_mshr_miss_latency::.cpu.data    407550500                       # number of demand (read+write) MSHR miss cycles
system.cpu.dcache.demand_mshr_miss_latency::total    407550500                       # number of demand (read+write) MSHR miss cycles
system.cpu.dcache.overall_mshr_miss_latency::.cpu.data    407806000                       # number of overall MSHR miss cycles
system.cpu.dcache.overall_mshr_miss_latency::total    407806000                       # number of overall MSHR miss cycles
system.cpu.dcache.demand_mshr_miss_rate::.cpu.data     0.008886                       # mshr miss rate for demand accesses
system.cpu.dcache.demand_mshr_miss_rate::total     0.008886                       # mshr miss rate for demand accesses
system.cpu.dcache.overall_mshr_miss_rate::.cpu.data     0.008891                       # mshr miss rate for overall accesses
system.cpu.dcache.overall_mshr_miss_rate::total     0.008891                       # mshr miss rate for overall accesses
system.cpu.dcache.demand_avg_mshr_miss_latency::.cpu.data 79320.844687                       # average overall mshr miss latency
system.cpu.dcache.demand_avg_mshr_miss_latency::total 79320.844687                       # average overall mshr miss latency
system.cpu.dcache.overall_avg_mshr_miss_latency::.cpu.data 79324.255981                       # average overall mshr miss latency
system.cpu.dcache.overall_avg_mshr_miss_latency::total 79324.255981                       # average overall mshr miss latency
system.cpu.dcache.replacements                   4117                       # number of replacements
system.cpu.dcache.ReadReq_hits::.cpu.data       404899                       # number of ReadReq hits
system.cpu.dcache.ReadReq_hits::total          404899                       # number of ReadReq hits
system.cpu.dcache.ReadReq_misses::.cpu.data         1552                       # number of ReadReq misses
system.cpu.dcache.ReadReq_misses::total          1552                       # number of ReadReq misses
system.cpu.dcache.ReadReq_miss_latency::.cpu.data    116678000                       # number of ReadReq miss cycles
system.cpu.dcache.ReadReq_miss_latency::total    116678000                       # number of ReadReq miss cycles
system.cpu.dcache.ReadReq_accesses::.cpu.data       406451                       # number of ReadReq accesses(hits+misses)
system.cpu.dcache.ReadReq_accesses::total       406451                       # number of ReadReq accesses(hits+misses)
system.cpu.dcache.ReadReq_miss_rate::.cpu.data     0.003818                       # miss rate for ReadReq accesses
system.cpu.dcache.ReadReq_miss_rate::total     0.003818                       # miss rate for ReadReq accesses
system.cpu.dcache.ReadReq_avg_miss_latency::.cpu.data 75179.123711                       # average ReadReq miss latency
system.cpu.dcache.ReadReq_avg_miss_latency::total 75179.123711                       # average ReadReq miss latency
system.cpu.dcache.ReadReq_mshr_hits::.cpu.data            8                       # number of ReadReq MSHR hits
system.cpu.dcache.ReadReq_mshr_hits::total            8                       # number of ReadReq MSHR hits
system.cpu.dcache.ReadReq_mshr_misses::.cpu.data         1544                       # number of ReadReq MSHR misses
system.cpu.dcache.ReadReq_mshr_misses::total         1544                       # number of ReadReq MSHR misses
system.cpu.dcache.ReadReq_mshr_miss_latency::.cpu.data    114472500                       # number of ReadReq MSHR miss cycles
system.cpu.dcache.ReadReq_mshr_miss_latency::total    114472500                       # number of ReadReq MSHR miss cycles
system.cpu.dcache.ReadReq_mshr_miss_rate::.cpu.data     0.003799                       # mshr miss rate for ReadReq accesses
system.cpu.dcache.ReadReq_mshr_miss_rate::total     0.003799                       # mshr miss rate for ReadReq accesses
system.cpu.dcache.ReadReq_avg_mshr_miss_latency::.cpu.data 74140.220207                       # average ReadReq mshr miss latency
system.cpu.dcache.ReadReq_avg_mshr_miss_latency::total 74140.220207                       # average ReadReq mshr miss latency
system.cpu.dcache.WriteReq_hits::.cpu.data       167718                       # number of WriteReq hits
system.cpu.dcache.WriteReq_hits::total         167718                       # number of WriteReq hits
system.cpu.dcache.WriteReq_misses::.cpu.data         4038                       # number of WriteReq misses
system.cpu.dcache.WriteReq_misses::total         4038                       # number of WriteReq misses
system.cpu.dcache.WriteReq_miss_latency::.cpu.data    321019000                       # number of WriteReq miss cycles
system.cpu.dcache.WriteReq_miss_latency::total    321019000                       # number of WriteReq miss cycles
system.cpu.dcache.WriteReq_accesses::.cpu.data       171756                       # number of WriteReq accesses(hits+misses)
system.cpu.dcache.WriteReq_accesses::total       171756                       # number of WriteReq accesses(hits+misses)
system.cpu.dcache.WriteReq_miss_rate::.cpu.data     0.023510                       # miss rate for WriteReq accesses
system.cpu.dcache.WriteReq_miss_rate::total     0.023510                       # miss rate for WriteReq accesses
system.cpu.dcache.WriteReq_avg_miss_latency::.cpu.data 79499.504705                       # average WriteReq miss latency
system.cpu.dcache.WriteReq_avg_miss_latency::total 79499.504705                       # average WriteReq miss latency
system.cpu.dcache.WriteReq_mshr_hits::.cpu.data          451                       # number of WriteReq MSHR hits
system.cpu.dcache.WriteReq_mshr_hits::total          451                       # number of WriteReq MSHR hits
system.cpu.dcache.WriteReq_mshr_misses::.cpu.data         3587                       # number of WriteReq MSHR misses
system.cpu.dcache.WriteReq_mshr_misses::total         3587                       # number of WriteReq MSHR misses
system.cpu.dcache.WriteReq_mshr_miss_latency::.cpu.data    292863000                       # number of WriteReq MSHR miss cycles
system.cpu.dcache.WriteReq_mshr_miss_latency::total    292863000                       # number of WriteReq MSHR miss cycles
system.cpu.dcache.WriteReq_mshr_miss_rate::.cpu.data     0.020884                       # mshr miss rate for WriteReq accesses
system.cpu.dcache.WriteReq_mshr_miss_rate::total     0.020884                       # mshr miss rate for WriteReq accesses
system.cpu.dcache.WriteReq_avg_mshr_miss_latency::.cpu.data 81645.664901                       # average WriteReq mshr miss latency
system.cpu.dcache.WriteReq_avg_mshr_miss_latency::total 81645.664901                       # average WriteReq mshr miss latency
system.cpu.dcache.SoftPFReq_hits::.cpu.data           16                       # number of SoftPFReq hits
system.cpu.dcache.SoftPFReq_hits::total            16                       # number of SoftPFReq hits
system.cpu.dcache.SoftPFReq_misses::.cpu.data            3                       # number of SoftPFReq misses
system.cpu.dcache.SoftPFReq_misses::total            3                       # number of SoftPFReq misses
system.cpu.dcache.SoftPFReq_accesses::.cpu.data           19                       # number of SoftPFReq accesses(hits+misses)
system.cpu.dcache.SoftPFReq_accesses::total           19                       # number of SoftPFReq accesses(hits+misses)
system.cpu.dcache.SoftPFReq_miss_rate::.cpu.data     0.157895                       # miss rate for SoftPFReq accesses
system.cpu.dcache.SoftPFReq_miss_rate::total     0.157895                       # miss rate for SoftPFReq accesses
system.cpu.dcache.SoftPFReq_mshr_misses::.cpu.data            3                       # number of SoftPFReq MSHR misses
system.cpu.dcache.SoftPFReq_mshr_misses::total            3                       # number of SoftPFReq MSHR misses
system.cpu.dcache.SoftPFReq_mshr_miss_latency::.cpu.data       255500                       # number of SoftPFReq MSHR miss cycles
system.cpu.dcache.SoftPFReq_mshr_miss_latency::total       255500                       # number of SoftPFReq MSHR miss cycles
system.cpu.dcache.SoftPFReq_mshr_miss_rate::.cpu.data     0.157895                       # mshr miss rate for SoftPFReq accesses
system.cpu.dcache.SoftPFReq_mshr_miss_rate::total     0.157895                       # mshr miss rate for SoftPFReq accesses
system.cpu.dcache.SoftPFReq_avg_mshr_miss_latency::.cpu.data 85166.666667                       # average SoftPFReq mshr miss latency
system.cpu.dcache.SoftPFReq_avg_mshr_miss_latency::total 85166.666667                       # average SoftPFReq mshr miss latency
system.cpu.dcache.WriteLineReq_misses::.cpu.data            7                       # number of WriteLineReq misses
system.cpu.dcache.WriteLineReq_misses::total            7                       # number of WriteLineReq misses
system.cpu.dcache.WriteLineReq_miss_latency::.cpu.data       222000                       # number of WriteLineReq miss cycles
system.cpu.dcache.WriteLineReq_miss_latency::total       222000                       # number of WriteLineReq miss cycles
system.cpu.dcache.WriteLineReq_accesses::.cpu.data            7                       # number of WriteLineReq accesses(hits+misses)
system.cpu.dcache.WriteLineReq_accesses::total            7                       # number of WriteLineReq accesses(hits+misses)
system.cpu.dcache.WriteLineReq_miss_rate::.cpu.data            1                       # miss rate for WriteLineReq accesses
system.cpu.dcache.WriteLineReq_miss_rate::total            1                       # miss rate for WriteLineReq accesses
system.cpu.dcache.WriteLineReq_avg_miss_latency::.cpu.data 31714.285714                       # average WriteLineReq miss latency
system.cpu.dcache.WriteLineReq_avg_miss_latency::total 31714.285714                       # average WriteLineReq miss latency
system.cpu.dcache.WriteLineReq_mshr_misses::.cpu.data            7                       # number of WriteLineReq MSHR misses
system.cpu.dcache.WriteLineReq_mshr_misses::total            7                       # number of WriteLineReq MSHR misses
system.cpu.dcache.WriteLineReq_mshr_miss_latency::.cpu.data       215000                       # number of WriteLineReq MSHR miss cycles
system.cpu.dcache.WriteLineReq_mshr_miss_latency::total       215000                       # number of WriteLineReq MSHR miss cycles
system.cpu.dcache.WriteLineReq_mshr_miss_rate::.cpu.data            1                       # mshr miss rate for WriteLineReq accesses
system.cpu.dcache.WriteLineReq_mshr_miss_rate::total            1                       # mshr miss rate for WriteLineReq accesses
system.cpu.dcache.WriteLineReq_avg_mshr_miss_latency::.cpu.data 30714.285714                       # average WriteLineReq mshr miss latency
system.cpu.dcache.WriteLineReq_avg_mshr_miss_latency::total 30714.285714                       # average WriteLineReq mshr miss latency
system.cpu.dcache.LoadLockedReq_hits::.cpu.data           36                       # number of LoadLockedReq hits
system.cpu.dcache.LoadLockedReq_hits::total           36                       # number of LoadLockedReq hits
system.cpu.dcache.LoadLockedReq_accesses::.cpu.data           36                       # number of LoadLockedReq accesses(hits+misses)
system.cpu.dcache.LoadLockedReq_accesses::total           36                       # number of LoadLockedReq accesses(hits+misses)
system.cpu.dcache.StoreCondReq_hits::.cpu.data           36                       # number of StoreCondReq hits
system.cpu.dcache.StoreCondReq_hits::total           36                       # number of StoreCondReq hits
system.cpu.dcache.StoreCondReq_accesses::.cpu.data           36                       # number of StoreCondReq accesses(hits+misses)
system.cpu.dcache.StoreCondReq_accesses::total           36                       # number of StoreCondReq accesses(hits+misses)
system.cpu.dcache.power_state.pwrStateResidencyTicks::UNDEFINED   1188482500                       # Cumulative time (in ticks) in various power states
system.cpu.dcache.tags.tagsinuse           866.574623                       # Cycle average of tags in use
system.cpu.dcache.tags.total_refs              577846                       # Total number of references to valid blocks.
system.cpu.dcache.tags.sampled_refs              5141                       # Sample count of references to valid blocks.
system.cpu.dcache.tags.avg_refs            112.399533                       # Average number of references to valid blocks.
system.cpu.dcache.tags.warmup_cycle            177500                       # Cycle when the warmup percentage was hit.
system.cpu.dcache.tags.occ_blocks::.cpu.data   866.574623                       # Average occupied blocks per requestor
system.cpu.dcache.tags.occ_percent::.cpu.data     0.846264                       # Average percentage of cache occupancy
system.cpu.dcache.tags.occ_percent::total     0.846264                       # Average percentage of cache occupancy
system.cpu.dcache.tags.occ_task_id_blocks::1024         1024                       # Occupied blocks per task id
system.cpu.dcache.tags.age_task_id_blocks_1024::0            5                       # Occupied blocks per task id
system.cpu.dcache.tags.age_task_id_blocks_1024::1          116                       # Occupied blocks per task id
system.cpu.dcache.tags.age_task_id_blocks_1024::2          889                       # Occupied blocks per task id
system.cpu.dcache.tags.age_task_id_blocks_1024::3           14                       # Occupied blocks per task id
system.cpu.dcache.tags.occ_task_id_percent::1024            1                       # Percentage of cache occupancy per task id
system.cpu.dcache.tags.tag_accesses           1161751                       # Number of tag accesses
system.cpu.dcache.tags.data_accesses          1161751                       # Number of data accesses
system.cpu.dcache.tags.power_state.pwrStateResidencyTicks::UNDEFINED   1188482500                       # Cumulative time (in ticks) in various power states
system.cpu.power_state.pwrStateResidencyTicks::ON   1188482500                       # Cumulative time (in ticks) in various power states
system.cpu.itb.walker.power_state.pwrStateResidencyTicks::UNDEFINED   1188482500                       # Cumulative time (in ticks) in various power states
system.cpu.itb.stage2_mmu.stage2_tlb.walker.power_state.pwrStateResidencyTicks::UNDEFINED   1188482500                       # Cumulative time (in ticks) in various power states

---------- End Simulation Statistics   ----------
