
---------- Begin Simulation Statistics ----------
final_tick                               132164193000                       # Number of ticks from beginning of simulation (restored from checkpoints and never reset)
host_inst_rate                                 216798                       # Simulator instruction rate (inst/s)
host_mem_usage                                 849456                       # Number of bytes of host memory used
host_op_rate                                   369592                       # Simulator op (including micro ops) rate (op/s)
host_seconds                                     7.30                       # Real time elapsed on the host
host_tick_rate                            18115627017                       # Simulator tick rate (ticks/s)
sim_freq                                 1000000000000                       # Frequency of simulated ticks
sim_insts                                     1581632                       # Number of instructions simulated
sim_ops                                       2696387                       # Number of ops (including micro ops) simulated
sim_seconds                                  0.132164                       # Number of seconds simulated
sim_ticks                                132164193000                       # Number of ticks simulated
system.cpu.Branches                            270491                       # Number of branches fetched
system.cpu.committedInsts                     1581632                       # Number of instructions committed
system.cpu.committedOps                       2696387                       # Number of ops (including micro ops) committed
system.cpu.dtb.rdAccesses                      368777                       # TLB accesses on read requests
system.cpu.dtb.rdMisses                           764                       # TLB misses on read requests
system.cpu.dtb.wrAccesses                      144850                       # TLB accesses on write requests
system.cpu.dtb.wrMisses                            67                       # TLB misses on write requests
system.cpu.idle_fraction                            0                       # Percentage of idle cycles
system.cpu.itb.rdAccesses                           0                       # TLB accesses on read requests
system.cpu.itb.rdMisses                             0                       # TLB misses on read requests
system.cpu.itb.wrAccesses                     2093697                       # TLB accesses on write requests
system.cpu.itb.wrMisses                           265                       # TLB misses on write requests
system.cpu.not_idle_fraction                        1                       # Percentage of non-idle cycles
system.cpu.numCycles                        264328386                       # number of cpu cycles simulated
system.cpu.numWorkItemsCompleted                    0                       # number of work items this cpu completed
system.cpu.numWorkItemsStarted                      0                       # number of work items this cpu started
system.cpu.num_busy_cycles                  264328386                       # Number of busy cycles
system.cpu.num_cc_register_reads              1683755                       # number of times the CC registers were read
system.cpu.num_cc_register_writes             1338252                       # number of times the CC registers were written
system.cpu.num_conditional_control_insts       240310                       # number of instructions that are conditional controls
system.cpu.num_fp_alu_accesses                  77499                       # Number of float alu accesses
system.cpu.num_fp_insts                         77499                       # number of float instructions
system.cpu.num_fp_register_reads               102832                       # number of times the floating registers were read
system.cpu.num_fp_register_writes               63649                       # number of times the floating registers were written
system.cpu.num_func_calls                       20179                       # number of times a function call or return occured
system.cpu.num_idle_cycles                          0                       # Number of idle cycles
system.cpu.num_int_alu_accesses               2632924                       # Number of integer alu accesses
system.cpu.num_int_insts                      2632924                       # number of integer instructions
system.cpu.num_int_register_reads             5349310                       # number of times the integer registers were read
system.cpu.num_int_register_writes            2280541                       # number of times the integer registers were written
system.cpu.num_load_insts                      368772                       # Number of load instructions
system.cpu.num_mem_refs                        513617                       # number of memory refs
system.cpu.num_store_insts                     144845                       # Number of store instructions
system.cpu.num_vec_alu_accesses                     0                       # Number of vector alu accesses
system.cpu.num_vec_insts                            0                       # number of vector instructions
system.cpu.num_vec_register_reads                   0                       # number of times the vector registers were read
system.cpu.num_vec_register_writes                  0                       # number of times the vector registers were written
system.cpu.op_class::No_OpClass                 17143      0.64%      0.64% # Class of executed instruction
system.cpu.op_class::IntAlu                   2103499     78.01%     78.64% # Class of executed instruction
system.cpu.op_class::IntMult                     1913      0.07%     78.71% # Class of executed instruction
system.cpu.op_class::IntDiv                     24008      0.89%     79.60% # Class of executed instruction
system.cpu.op_class::FloatAdd                    6618      0.25%     79.85% # Class of executed instruction
system.cpu.op_class::FloatCmp                       0      0.00%     79.85% # Class of executed instruction
system.cpu.op_class::FloatCvt                    1232      0.05%     79.89% # Class of executed instruction
system.cpu.op_class::FloatMult                   4000      0.15%     80.04% # Class of executed instruction
system.cpu.op_class::FloatMultAcc                   0      0.00%     80.04% # Class of executed instruction
system.cpu.op_class::FloatDiv                       0      0.00%     80.04% # Class of executed instruction
system.cpu.op_class::FloatMisc                      0      0.00%     80.04% # Class of executed instruction
system.cpu.op_class::FloatSqrt                      0      0.00%     80.04% # Class of executed instruction
system.cpu.op_class::SimdAdd                       16      0.00%     80.04% # Class of executed instruction
system.cpu.op_class::SimdAddAcc                     0      0.00%     80.04% # Class of executed instruction
system.cpu.op_class::SimdAlu                     4186      0.16%     80.20% # Class of executed instruction
system.cpu.op_class::SimdCmp                        0      0.00%     80.20% # Class of executed instruction
system.cpu.op_class::SimdCvt                      166      0.01%     80.20% # Class of executed instruction
system.cpu.op_class::SimdMisc                    4157      0.15%     80.36% # Class of executed instruction
system.cpu.op_class::SimdMult                       0      0.00%     80.36% # Class of executed instruction
system.cpu.op_class::SimdMultAcc                    0      0.00%     80.36% # Class of executed instruction
system.cpu.op_class::SimdShift                     24      0.00%     80.36% # Class of executed instruction
system.cpu.op_class::SimdShiftAcc                   0      0.00%     80.36% # Class of executed instruction
system.cpu.op_class::SimdDiv                        0      0.00%     80.36% # Class of executed instruction
system.cpu.op_class::SimdSqrt                       0      0.00%     80.36% # Class of executed instruction
system.cpu.op_class::SimdFloatAdd                6000      0.22%     80.58% # Class of executed instruction
system.cpu.op_class::SimdFloatAlu                   0      0.00%     80.58% # Class of executed instruction
system.cpu.op_class::SimdFloatCmp                   0      0.00%     80.58% # Class of executed instruction
system.cpu.op_class::SimdFloatCvt                4000      0.15%     80.73% # Class of executed instruction
system.cpu.op_class::SimdFloatDiv                2000      0.07%     80.80% # Class of executed instruction
system.cpu.op_class::SimdFloatMisc                  0      0.00%     80.80% # Class of executed instruction
system.cpu.op_class::SimdFloatMult               4000      0.15%     80.95% # Class of executed instruction
system.cpu.op_class::SimdFloatMultAcc               0      0.00%     80.95% # Class of executed instruction
system.cpu.op_class::SimdFloatSqrt                  0      0.00%     80.95% # Class of executed instruction
system.cpu.op_class::SimdReduceAdd                  0      0.00%     80.95% # Class of executed instruction
system.cpu.op_class::SimdReduceAlu                  0      0.00%     80.95% # Class of executed instruction
system.cpu.op_class::SimdReduceCmp                  0      0.00%     80.95% # Class of executed instruction
system.cpu.op_class::SimdFloatReduceAdd             0      0.00%     80.95% # Class of executed instruction
system.cpu.op_class::SimdFloatReduceCmp             0      0.00%     80.95% # Class of executed instruction
system.cpu.op_class::SimdAes                        0      0.00%     80.95% # Class of executed instruction
system.cpu.op_class::SimdAesMix                     0      0.00%     80.95% # Class of executed instruction
system.cpu.op_class::SimdSha1Hash                   0      0.00%     80.95% # Class of executed instruction
system.cpu.op_class::SimdSha1Hash2                  0      0.00%     80.95% # Class of executed instruction
system.cpu.op_class::SimdSha256Hash                 0      0.00%     80.95% # Class of executed instruction
system.cpu.op_class::SimdSha256Hash2                0      0.00%     80.95% # Class of executed instruction
system.cpu.op_class::SimdShaSigma2                  0      0.00%     80.95% # Class of executed instruction
system.cpu.op_class::SimdShaSigma3                  0      0.00%     80.95% # Class of executed instruction
system.cpu.op_class::SimdPredAlu                    0      0.00%     80.95% # Class of executed instruction
system.cpu.op_class::MemRead                   352140     13.06%     94.01% # Class of executed instruction
system.cpu.op_class::MemWrite                  132380      4.91%     98.92% # Class of executed instruction
system.cpu.op_class::FloatMemRead               16632      0.62%     99.54% # Class of executed instruction
system.cpu.op_class::FloatMemWrite              12465      0.46%    100.00% # Class of executed instruction
system.cpu.op_class::IprAccess                      0      0.00%    100.00% # Class of executed instruction
system.cpu.op_class::InstPrefetch                   0      0.00%    100.00% # Class of executed instruction
system.cpu.op_class::total                    2696579                       # Class of executed instruction
system.cpu.workload.numSyscalls                    58                       # Number of system calls
system.membus.snoop_filter.hit_multi_requests            0                       # Number of requests hitting in the snoop filter with multiple (>1) holders of the requested data.
system.membus.snoop_filter.hit_multi_snoops            0                       # Number of snoops hitting in the snoop filter with multiple (>1) holders of the requested data.
system.membus.snoop_filter.hit_single_requests            0                       # Number of requests hitting in the snoop filter with a single holder of the requested data.
system.membus.snoop_filter.hit_single_snoops            0                       # Number of snoops hitting in the snoop filter with a single holder of the requested data.
system.membus.snoop_filter.tot_requests             0                       # Total number of requests made to the snoop filter.
system.membus.snoop_filter.tot_snoops               0                       # Total number of snoops made to the snoop filter.
system.membus.trans_dist::ReadReq             2462232                       # Transaction distribution
system.membus.trans_dist::ReadResp            2462231                       # Transaction distribution
system.membus.trans_dist::WriteReq             144826                       # Transaction distribution
system.membus.trans_dist::WriteResp            144826                       # Transaction distribution
system.membus.pkt_count_system.cpu.icache_port::system.mem_ctrls.port      4187245                       # Packet count per connected master and slave (bytes)
system.membus.pkt_count_system.cpu.icache_port::total      4187245                       # Packet count per connected master and slave (bytes)
system.membus.pkt_count_system.cpu.dcache_port::system.mem_ctrls.port      1026870                       # Packet count per connected master and slave (bytes)
system.membus.pkt_count_system.cpu.dcache_port::total      1026870                       # Packet count per connected master and slave (bytes)
system.membus.pkt_count::total                5214115                       # Packet count per connected master and slave (bytes)
system.membus.pkt_size_system.cpu.icache_port::system.mem_ctrls.port     16748976                       # Cumulative packet size per connected master and slave (bytes)
system.membus.pkt_size_system.cpu.icache_port::total     16748976                       # Cumulative packet size per connected master and slave (bytes)
system.membus.pkt_size_system.cpu.dcache_port::system.mem_ctrls.port      2972005                       # Cumulative packet size per connected master and slave (bytes)
system.membus.pkt_size_system.cpu.dcache_port::total      2972005                       # Cumulative packet size per connected master and slave (bytes)
system.membus.pkt_size::total                19720981                       # Cumulative packet size per connected master and slave (bytes)
system.membus.snoops                                0                       # Total snoops (count)
system.membus.snoopTraffic                          0                       # Total snoop traffic (bytes)
system.membus.snoop_fanout::samples           2607058                       # Request fanout histogram
system.membus.snoop_fanout::mean                    0                       # Request fanout histogram
system.membus.snoop_fanout::stdev                   0                       # Request fanout histogram
system.membus.snoop_fanout::underflows              0      0.00%      0.00% # Request fanout histogram
system.membus.snoop_fanout::0                 2607058    100.00%    100.00% # Request fanout histogram
system.membus.snoop_fanout::1                       0      0.00%    100.00% # Request fanout histogram
system.membus.snoop_fanout::overflows               0      0.00%    100.00% # Request fanout histogram
system.membus.snoop_fanout::min_value               0                       # Request fanout histogram
system.membus.snoop_fanout::max_value               0                       # Request fanout histogram
system.membus.snoop_fanout::total             2607058                       # Request fanout histogram
system.membus.reqLayer2.occupancy          2751884000                       # Layer occupancy (ticks)
system.membus.reqLayer2.utilization               2.1                       # Layer utilization (%)
system.membus.respLayer1.occupancy         4759496000                       # Layer occupancy (ticks)
system.membus.respLayer1.utilization              3.6                       # Layer utilization (%)
system.membus.respLayer2.occupancy         1006483750                       # Layer occupancy (ticks)
system.membus.respLayer2.utilization              0.8                       # Layer utilization (%)
system.membus.power_state.pwrStateResidencyTicks::UNDEFINED 132164193000                       # Cumulative time (in ticks) in various power states
system.voltage_domain.voltage                       1                       # Voltage in Volts
system.clk_domain.clock                          1000                       # Clock period in ticks
system.cpu_voltage_domain.voltage                   1                       # Voltage in Volts
system.mem_ctrls.bytes_read::.cpu.inst       16748976                       # Number of bytes read from this memory
system.mem_ctrls.bytes_read::.cpu.data        1929394                       # Number of bytes read from this memory
system.mem_ctrls.bytes_read::total           18678370                       # Number of bytes read from this memory
system.mem_ctrls.bytes_inst_read::.cpu.inst     16748976                       # Number of instructions bytes read from this memory
system.mem_ctrls.bytes_inst_read::total      16748976                       # Number of instructions bytes read from this memory
system.mem_ctrls.bytes_written::.cpu.data      1042611                       # Number of bytes written to this memory
system.mem_ctrls.bytes_written::total         1042611                       # Number of bytes written to this memory
system.mem_ctrls.num_reads::.cpu.inst         2093622                       # Number of read requests responded to by this memory
system.mem_ctrls.num_reads::.cpu.data          368609                       # Number of read requests responded to by this memory
system.mem_ctrls.num_reads::total             2462231                       # Number of read requests responded to by this memory
system.mem_ctrls.num_writes::.cpu.data         144826                       # Number of write requests responded to by this memory
system.mem_ctrls.num_writes::total             144826                       # Number of write requests responded to by this memory
system.mem_ctrls.bw_read::.cpu.inst         126728546                       # Total read bandwidth from this memory (bytes/s)
system.mem_ctrls.bw_read::.cpu.data          14598462                       # Total read bandwidth from this memory (bytes/s)
system.mem_ctrls.bw_read::total             141327008                       # Total read bandwidth from this memory (bytes/s)
system.mem_ctrls.bw_inst_read::.cpu.inst    126728546                       # Instruction read bandwidth from this memory (bytes/s)
system.mem_ctrls.bw_inst_read::total        126728546                       # Instruction read bandwidth from this memory (bytes/s)
system.mem_ctrls.bw_write::.cpu.data          7888755                       # Write bandwidth from this memory (bytes/s)
system.mem_ctrls.bw_write::total              7888755                       # Write bandwidth from this memory (bytes/s)
system.mem_ctrls.bw_total::.cpu.inst        126728546                       # Total bandwidth to/from this memory (bytes/s)
system.mem_ctrls.bw_total::.cpu.data         22487218                       # Total bandwidth to/from this memory (bytes/s)
system.mem_ctrls.bw_total::total            149215764                       # Total bandwidth to/from this memory (bytes/s)
system.mem_ctrls.avgPriority_.cpu.inst::samples   2093623.00                       # Average QoS priority value for accepted requests
system.mem_ctrls.avgPriority_.cpu.data::samples    345131.00                       # Average QoS priority value for accepted requests
system.mem_ctrls.priorityMinLatency      0.000000018750                       # per QoS priority minimum request to response latency (s)
system.mem_ctrls.priorityMaxLatency      0.022412762500                       # per QoS priority maximum request to response latency (s)
system.mem_ctrls.numReadWriteTurnArounds          327                       # Number of turnarounds from READ to WRITE
system.mem_ctrls.numWriteReadTurnArounds          327                       # Number of turnarounds from WRITE to READ
system.mem_ctrls.numStayReadState             5045366                       # Number of times bus staying in READ state
system.mem_ctrls.numStayWriteState               4930                       # Number of times bus staying in WRITE state
system.mem_ctrls.readReqs                     2462232                       # Number of read requests accepted
system.mem_ctrls.writeReqs                     144826                       # Number of write requests accepted
system.mem_ctrls.readBursts                   2462232                       # Number of DRAM read bursts, including those serviced by the write queue
system.mem_ctrls.writeBursts                   144826                       # Number of DRAM write bursts, including those merged in the write queue
system.mem_ctrls.servicedByWrQ                  28760                       # Number of DRAM read bursts serviced by the write queue
system.mem_ctrls.mergedWrBursts                139544                       # Number of DRAM write bursts merged with an existing one
system.mem_ctrls.neitherReadNorWriteReqs            0                       # Number of requests that are neither read nor write
system.mem_ctrls.perBankRdBursts::0            377159                       # Per bank write bursts
system.mem_ctrls.perBankRdBursts::1             16499                       # Per bank write bursts
system.mem_ctrls.perBankRdBursts::2             10024                       # Per bank write bursts
system.mem_ctrls.perBankRdBursts::3             16109                       # Per bank write bursts
system.mem_ctrls.perBankRdBursts::4             54862                       # Per bank write bursts
system.mem_ctrls.perBankRdBursts::5             97808                       # Per bank write bursts
system.mem_ctrls.perBankRdBursts::6           1150285                       # Per bank write bursts
system.mem_ctrls.perBankRdBursts::7            369216                       # Per bank write bursts
system.mem_ctrls.perBankRdBursts::8             36331                       # Per bank write bursts
system.mem_ctrls.perBankRdBursts::9             19183                       # Per bank write bursts
system.mem_ctrls.perBankRdBursts::10            28892                       # Per bank write bursts
system.mem_ctrls.perBankRdBursts::11             9752                       # Per bank write bursts
system.mem_ctrls.perBankRdBursts::12            10654                       # Per bank write bursts
system.mem_ctrls.perBankRdBursts::13            51632                       # Per bank write bursts
system.mem_ctrls.perBankRdBursts::14           160599                       # Per bank write bursts
system.mem_ctrls.perBankRdBursts::15            24467                       # Per bank write bursts
system.mem_ctrls.perBankWrBursts::0               374                       # Per bank write bursts
system.mem_ctrls.perBankWrBursts::1                97                       # Per bank write bursts
system.mem_ctrls.perBankWrBursts::2                47                       # Per bank write bursts
system.mem_ctrls.perBankWrBursts::3               369                       # Per bank write bursts
system.mem_ctrls.perBankWrBursts::4               657                       # Per bank write bursts
system.mem_ctrls.perBankWrBursts::5              1316                       # Per bank write bursts
system.mem_ctrls.perBankWrBursts::6               195                       # Per bank write bursts
system.mem_ctrls.perBankWrBursts::7                 0                       # Per bank write bursts
system.mem_ctrls.perBankWrBursts::8                 0                       # Per bank write bursts
system.mem_ctrls.perBankWrBursts::9               123                       # Per bank write bursts
system.mem_ctrls.perBankWrBursts::10                5                       # Per bank write bursts
system.mem_ctrls.perBankWrBursts::11              209                       # Per bank write bursts
system.mem_ctrls.perBankWrBursts::12              327                       # Per bank write bursts
system.mem_ctrls.perBankWrBursts::13              244                       # Per bank write bursts
system.mem_ctrls.perBankWrBursts::14              384                       # Per bank write bursts
system.mem_ctrls.perBankWrBursts::15              907                       # Per bank write bursts
system.mem_ctrls.avgRdQLen                       1.00                       # Average read queue length when enqueuing
system.mem_ctrls.avgWrQLen                      26.86                       # Average write queue length when enqueuing
system.mem_ctrls.totQLat                   9219551000                       # Total ticks spent queuing
system.mem_ctrls.totBusLat                12167360000                       # Total ticks spent in databus transfers
system.mem_ctrls.totMemAccLat             54847151000                       # Total ticks spent from burst creation until serviced by the DRAM
system.mem_ctrls.avgQLat                      3788.64                       # Average queueing delay per DRAM burst
system.mem_ctrls.avgBusLat                    5000.00                       # Average bus latency per DRAM burst
system.mem_ctrls.avgMemAccLat                22538.64                       # Average memory access latency per DRAM burst
system.mem_ctrls.numRdRetry                         0                       # Number of times read queue was full causing retry
system.mem_ctrls.numWrRetry                         0                       # Number of times write queue was full causing retry
system.mem_ctrls.readRowHits                  2158892                       # Number of row buffer hits during reads
system.mem_ctrls.writeRowHits                    4597                       # Number of row buffer hits during writes
system.mem_ctrls.readRowHitRate                 88.72                       # Row buffer hit rate for reads
system.mem_ctrls.writeRowHitRate                87.03                       # Row buffer hit rate for writes
system.mem_ctrls.readPktSize::0                113207                       # Read request sizes (log2)
system.mem_ctrls.readPktSize::1                  8653                       # Read request sizes (log2)
system.mem_ctrls.readPktSize::2                 43776                       # Read request sizes (log2)
system.mem_ctrls.readPktSize::3               2296596                       # Read request sizes (log2)
system.mem_ctrls.readPktSize::4                     0                       # Read request sizes (log2)
system.mem_ctrls.readPktSize::5                     0                       # Read request sizes (log2)
system.mem_ctrls.readPktSize::6                     0                       # Read request sizes (log2)
system.mem_ctrls.writePktSize::0                 5696                       # Write request sizes (log2)
system.mem_ctrls.writePktSize::1                 1048                       # Write request sizes (log2)
system.mem_ctrls.writePktSize::2                17457                       # Write request sizes (log2)
system.mem_ctrls.writePktSize::3               120625                       # Write request sizes (log2)
system.mem_ctrls.writePktSize::4                    0                       # Write request sizes (log2)
system.mem_ctrls.writePktSize::5                    0                       # Write request sizes (log2)
system.mem_ctrls.writePktSize::6                    0                       # Write request sizes (log2)
system.mem_ctrls.rdQLenPdf::0                 2433468                       # What read queue length does an incoming req see
system.mem_ctrls.rdQLenPdf::1                       4                       # What read queue length does an incoming req see
system.mem_ctrls.rdQLenPdf::2                       0                       # What read queue length does an incoming req see
system.mem_ctrls.rdQLenPdf::3                       0                       # What read queue length does an incoming req see
system.mem_ctrls.rdQLenPdf::4                       0                       # What read queue length does an incoming req see
system.mem_ctrls.rdQLenPdf::5                       0                       # What read queue length does an incoming req see
system.mem_ctrls.rdQLenPdf::6                       0                       # What read queue length does an incoming req see
system.mem_ctrls.rdQLenPdf::7                       0                       # What read queue length does an incoming req see
system.mem_ctrls.rdQLenPdf::8                       0                       # What read queue length does an incoming req see
system.mem_ctrls.rdQLenPdf::9                       0                       # What read queue length does an incoming req see
system.mem_ctrls.rdQLenPdf::10                      0                       # What read queue length does an incoming req see
system.mem_ctrls.rdQLenPdf::11                      0                       # What read queue length does an incoming req see
system.mem_ctrls.rdQLenPdf::12                      0                       # What read queue length does an incoming req see
system.mem_ctrls.rdQLenPdf::13                      0                       # What read queue length does an incoming req see
system.mem_ctrls.rdQLenPdf::14                      0                       # What read queue length does an incoming req see
system.mem_ctrls.rdQLenPdf::15                      0                       # What read queue length does an incoming req see
system.mem_ctrls.rdQLenPdf::16                      0                       # What read queue length does an incoming req see
system.mem_ctrls.rdQLenPdf::17                      0                       # What read queue length does an incoming req see
system.mem_ctrls.rdQLenPdf::18                      0                       # What read queue length does an incoming req see
system.mem_ctrls.rdQLenPdf::19                      0                       # What read queue length does an incoming req see
system.mem_ctrls.rdQLenPdf::20                      0                       # What read queue length does an incoming req see
system.mem_ctrls.rdQLenPdf::21                      0                       # What read queue length does an incoming req see
system.mem_ctrls.rdQLenPdf::22                      0                       # What read queue length does an incoming req see
system.mem_ctrls.rdQLenPdf::23                      0                       # What read queue length does an incoming req see
system.mem_ctrls.rdQLenPdf::24                      0                       # What read queue length does an incoming req see
system.mem_ctrls.rdQLenPdf::25                      0                       # What read queue length does an incoming req see
system.mem_ctrls.rdQLenPdf::26                      0                       # What read queue length does an incoming req see
system.mem_ctrls.rdQLenPdf::27                      0                       # What read queue length does an incoming req see
system.mem_ctrls.rdQLenPdf::28                      0                       # What read queue length does an incoming req see
system.mem_ctrls.rdQLenPdf::29                      0                       # What read queue length does an incoming req see
system.mem_ctrls.rdQLenPdf::30                      0                       # What read queue length does an incoming req see
system.mem_ctrls.rdQLenPdf::31                      0                       # What read queue length does an incoming req see
system.mem_ctrls.wrQLenPdf::0                       1                       # What write queue length does an incoming req see
system.mem_ctrls.wrQLenPdf::1                       1                       # What write queue length does an incoming req see
system.mem_ctrls.wrQLenPdf::2                       1                       # What write queue length does an incoming req see
system.mem_ctrls.wrQLenPdf::3                       1                       # What write queue length does an incoming req see
system.mem_ctrls.wrQLenPdf::4                       1                       # What write queue length does an incoming req see
system.mem_ctrls.wrQLenPdf::5                       1                       # What write queue length does an incoming req see
system.mem_ctrls.wrQLenPdf::6                       1                       # What write queue length does an incoming req see
system.mem_ctrls.wrQLenPdf::7                       1                       # What write queue length does an incoming req see
system.mem_ctrls.wrQLenPdf::8                       1                       # What write queue length does an incoming req see
system.mem_ctrls.wrQLenPdf::9                       1                       # What write queue length does an incoming req see
system.mem_ctrls.wrQLenPdf::10                      1                       # What write queue length does an incoming req see
system.mem_ctrls.wrQLenPdf::11                      1                       # What write queue length does an incoming req see
system.mem_ctrls.wrQLenPdf::12                      1                       # What write queue length does an incoming req see
system.mem_ctrls.wrQLenPdf::13                      1                       # What write queue length does an incoming req see
system.mem_ctrls.wrQLenPdf::14                      1                       # What write queue length does an incoming req see
system.mem_ctrls.wrQLenPdf::15                     12                       # What write queue length does an incoming req see
system.mem_ctrls.wrQLenPdf::16                     12                       # What write queue length does an incoming req see
system.mem_ctrls.wrQLenPdf::17                    328                       # What write queue length does an incoming req see
system.mem_ctrls.wrQLenPdf::18                    328                       # What write queue length does an incoming req see
system.mem_ctrls.wrQLenPdf::19                    328                       # What write queue length does an incoming req see
system.mem_ctrls.wrQLenPdf::20                    328                       # What write queue length does an incoming req see
system.mem_ctrls.wrQLenPdf::21                    328                       # What write queue length does an incoming req see
system.mem_ctrls.wrQLenPdf::22                    328                       # What write queue length does an incoming req see
system.mem_ctrls.wrQLenPdf::23                    328                       # What write queue length does an incoming req see
system.mem_ctrls.wrQLenPdf::24                    328                       # What write queue length does an incoming req see
system.mem_ctrls.wrQLenPdf::25                    328                       # What write queue length does an incoming req see
system.mem_ctrls.wrQLenPdf::26                    328                       # What write queue length does an incoming req see
system.mem_ctrls.wrQLenPdf::27                    328                       # What write queue length does an incoming req see
system.mem_ctrls.wrQLenPdf::28                    327                       # What write queue length does an incoming req see
system.mem_ctrls.wrQLenPdf::29                    327                       # What write queue length does an incoming req see
system.mem_ctrls.wrQLenPdf::30                    327                       # What write queue length does an incoming req see
system.mem_ctrls.wrQLenPdf::31                    327                       # What write queue length does an incoming req see
system.mem_ctrls.wrQLenPdf::32                    327                       # What write queue length does an incoming req see
system.mem_ctrls.wrQLenPdf::33                      0                       # What write queue length does an incoming req see
system.mem_ctrls.wrQLenPdf::34                      0                       # What write queue length does an incoming req see
system.mem_ctrls.wrQLenPdf::35                      0                       # What write queue length does an incoming req see
system.mem_ctrls.wrQLenPdf::36                      0                       # What write queue length does an incoming req see
system.mem_ctrls.wrQLenPdf::37                      0                       # What write queue length does an incoming req see
system.mem_ctrls.wrQLenPdf::38                      0                       # What write queue length does an incoming req see
system.mem_ctrls.wrQLenPdf::39                      0                       # What write queue length does an incoming req see
system.mem_ctrls.wrQLenPdf::40                      0                       # What write queue length does an incoming req see
system.mem_ctrls.wrQLenPdf::41                      0                       # What write queue length does an incoming req see
system.mem_ctrls.wrQLenPdf::42                      0                       # What write queue length does an incoming req see
system.mem_ctrls.wrQLenPdf::43                      0                       # What write queue length does an incoming req see
system.mem_ctrls.wrQLenPdf::44                      0                       # What write queue length does an incoming req see
system.mem_ctrls.wrQLenPdf::45                      0                       # What write queue length does an incoming req see
system.mem_ctrls.wrQLenPdf::46                      0                       # What write queue length does an incoming req see
system.mem_ctrls.wrQLenPdf::47                      0                       # What write queue length does an incoming req see
system.mem_ctrls.wrQLenPdf::48                      0                       # What write queue length does an incoming req see
system.mem_ctrls.wrQLenPdf::49                      0                       # What write queue length does an incoming req see
system.mem_ctrls.wrQLenPdf::50                      0                       # What write queue length does an incoming req see
system.mem_ctrls.wrQLenPdf::51                      0                       # What write queue length does an incoming req see
system.mem_ctrls.wrQLenPdf::52                      0                       # What write queue length does an incoming req see
system.mem_ctrls.wrQLenPdf::53                      0                       # What write queue length does an incoming req see
system.mem_ctrls.wrQLenPdf::54                      0                       # What write queue length does an incoming req see
system.mem_ctrls.wrQLenPdf::55                      0                       # What write queue length does an incoming req see
system.mem_ctrls.wrQLenPdf::56                      0                       # What write queue length does an incoming req see
system.mem_ctrls.wrQLenPdf::57                      0                       # What write queue length does an incoming req see
system.mem_ctrls.wrQLenPdf::58                      0                       # What write queue length does an incoming req see
system.mem_ctrls.wrQLenPdf::59                      0                       # What write queue length does an incoming req see
system.mem_ctrls.wrQLenPdf::60                      0                       # What write queue length does an incoming req see
system.mem_ctrls.wrQLenPdf::61                      0                       # What write queue length does an incoming req see
system.mem_ctrls.wrQLenPdf::62                      0                       # What write queue length does an incoming req see
system.mem_ctrls.wrQLenPdf::63                      0                       # What write queue length does an incoming req see
system.mem_ctrls.bytesPerActivate::samples       275236                       # Bytes accessed per row activation
system.mem_ctrls.bytesPerActivate::mean    567.070703                       # Bytes accessed per row activation
system.mem_ctrls.bytesPerActivate::gmean   349.508244                       # Bytes accessed per row activation
system.mem_ctrls.bytesPerActivate::stdev   415.890098                       # Bytes accessed per row activation
system.mem_ctrls.bytesPerActivate::0-127        67089     24.38%     24.38% # Bytes accessed per row activation
system.mem_ctrls.bytesPerActivate::128-255        29740     10.81%     35.18% # Bytes accessed per row activation
system.mem_ctrls.bytesPerActivate::256-383        18142      6.59%     41.77% # Bytes accessed per row activation
system.mem_ctrls.bytesPerActivate::384-511        16416      5.96%     47.74% # Bytes accessed per row activation
system.mem_ctrls.bytesPerActivate::512-639        10484      3.81%     51.55% # Bytes accessed per row activation
system.mem_ctrls.bytesPerActivate::640-767        12424      4.51%     56.06% # Bytes accessed per row activation
system.mem_ctrls.bytesPerActivate::768-895         7716      2.80%     58.86% # Bytes accessed per row activation
system.mem_ctrls.bytesPerActivate::896-1023         6196      2.25%     61.11% # Bytes accessed per row activation
system.mem_ctrls.bytesPerActivate::1024-1151       107029     38.89%    100.00% # Bytes accessed per row activation
system.mem_ctrls.bytesPerActivate::total       275236                       # Bytes accessed per row activation
system.mem_ctrls.rdPerTurnAround::samples          327                       # Reads before turning the bus around for writes
system.mem_ctrls.rdPerTurnAround::mean    7411.581040                       # Reads before turning the bus around for writes
system.mem_ctrls.rdPerTurnAround::stdev  11755.928615                       # Reads before turning the bus around for writes
system.mem_ctrls.rdPerTurnAround::0-4095          202     61.77%     61.77% # Reads before turning the bus around for writes
system.mem_ctrls.rdPerTurnAround::4096-8191           44     13.46%     75.23% # Reads before turning the bus around for writes
system.mem_ctrls.rdPerTurnAround::8192-12287           18      5.50%     80.73% # Reads before turning the bus around for writes
system.mem_ctrls.rdPerTurnAround::12288-16383           29      8.87%     89.60% # Reads before turning the bus around for writes
system.mem_ctrls.rdPerTurnAround::16384-20479            7      2.14%     91.74% # Reads before turning the bus around for writes
system.mem_ctrls.rdPerTurnAround::20480-24575            6      1.83%     93.58% # Reads before turning the bus around for writes
system.mem_ctrls.rdPerTurnAround::24576-28671            4      1.22%     94.80% # Reads before turning the bus around for writes
system.mem_ctrls.rdPerTurnAround::28672-32767            2      0.61%     95.41% # Reads before turning the bus around for writes
system.mem_ctrls.rdPerTurnAround::32768-36863            1      0.31%     95.72% # Reads before turning the bus around for writes
system.mem_ctrls.rdPerTurnAround::36864-40959            2      0.61%     96.33% # Reads before turning the bus around for writes
system.mem_ctrls.rdPerTurnAround::40960-45055            2      0.61%     96.94% # Reads before turning the bus around for writes
system.mem_ctrls.rdPerTurnAround::45056-49151            5      1.53%     98.47% # Reads before turning the bus around for writes
system.mem_ctrls.rdPerTurnAround::49152-53247            1      0.31%     98.78% # Reads before turning the bus around for writes
system.mem_ctrls.rdPerTurnAround::57344-61439            1      0.31%     99.08% # Reads before turning the bus around for writes
system.mem_ctrls.rdPerTurnAround::65536-69631            1      0.31%     99.39% # Reads before turning the bus around for writes
system.mem_ctrls.rdPerTurnAround::69632-73727            1      0.31%     99.69% # Reads before turning the bus around for writes
system.mem_ctrls.rdPerTurnAround::90112-94207            1      0.31%    100.00% # Reads before turning the bus around for writes
system.mem_ctrls.rdPerTurnAround::total           327                       # Reads before turning the bus around for writes
system.mem_ctrls.wrPerTurnAround::samples          327                       # Writes before turning the bus around for reads
system.mem_ctrls.wrPerTurnAround::mean      16.067278                       # Writes before turning the bus around for reads
system.mem_ctrls.wrPerTurnAround::gmean     16.063520                       # Writes before turning the bus around for reads
system.mem_ctrls.wrPerTurnAround::stdev      0.361150                       # Writes before turning the bus around for reads
system.mem_ctrls.wrPerTurnAround::16              316     96.64%     96.64% # Writes before turning the bus around for reads
system.mem_ctrls.wrPerTurnAround::18               11      3.36%    100.00% # Writes before turning the bus around for reads
system.mem_ctrls.wrPerTurnAround::total           327                       # Writes before turning the bus around for reads
system.mem_ctrls.bytesReadDRAM              155742208                       # Total number of bytes read from DRAM
system.mem_ctrls.bytesReadWrQ                 1840640                       # Total number of bytes read from write queue
system.mem_ctrls.bytesWritten                  336256                       # Total number of bytes written to DRAM
system.mem_ctrls.bytesReadSys                18678378                       # Total read bytes from the system interface side
system.mem_ctrls.bytesWrittenSys              1042611                       # Total written bytes from the system interface side
system.mem_ctrls.avgRdBW                      1178.40                       # Average DRAM read bandwidth in MiByte/s
system.mem_ctrls.avgWrBW                         2.54                       # Average achieved write bandwidth in MiByte/s
system.mem_ctrls.avgRdBWSys                    141.33                       # Average system read bandwidth in MiByte/s
system.mem_ctrls.avgWrBWSys                      7.89                       # Average system write bandwidth in MiByte/s
system.mem_ctrls.peakBW                      12800.00                       # Theoretical peak bandwidth in MiByte/s
system.mem_ctrls.busUtil                         9.23                       # Data bus utilization in percentage
system.mem_ctrls.busUtilRead                     9.21                       # Data bus utilization in percentage for reads
system.mem_ctrls.busUtilWrite                    0.02                       # Data bus utilization in percentage for writes
system.mem_ctrls.totGap                  132164116000                       # Total gap between requests
system.mem_ctrls.avgGap                      50694.74                       # Average gap between requests
system.mem_ctrls.masterReadBytes::.cpu.inst     16748984                       # Per-master bytes read from memory
system.mem_ctrls.masterReadBytes::.cpu.data      1702147                       # Per-master bytes read from memory
system.mem_ctrls.masterWriteBytes::.cpu.data        39606                       # Per-master bytes write to memory
system.mem_ctrls.masterReadRate::.cpu.inst 126728606.438810542226                       # Per-master bytes read from memory rate (Bytes/sec)
system.mem_ctrls.masterReadRate::.cpu.data 12879032.976806355640                       # Per-master bytes read from memory rate (Bytes/sec)
system.mem_ctrls.masterWriteRate::.cpu.data 299672.695765637502                       # Per-master bytes write to memory rate (Bytes/sec)
system.mem_ctrls.masterReadAccesses::.cpu.inst      2093623                       # Per-master read serviced memory accesses
system.mem_ctrls.masterReadAccesses::.cpu.data       368609                       # Per-master read serviced memory accesses
system.mem_ctrls.masterWriteAccesses::.cpu.data       144826                       # Per-master write serviced memory accesses
system.mem_ctrls.masterReadTotalLat::.cpu.inst  45734017750                       # Per-master read total memory access latency
system.mem_ctrls.masterReadTotalLat::.cpu.data   9113133250                       # Per-master read total memory access latency
system.mem_ctrls.masterWriteTotalLat::.cpu.data 3498886964500                       # Per-master write total memory access latency
system.mem_ctrls.masterReadAvgLat::.cpu.inst     21844.44                       # Per-master read average memory access latency
system.mem_ctrls.masterReadAvgLat::.cpu.data     24723.04                       # Per-master read average memory access latency
system.mem_ctrls.masterWriteAvgLat::.cpu.data  24159246.02                       # Per-master write average memory access latency
system.mem_ctrls.pageHitRate                    88.71                       # Row buffer hit rate, read and write combined
system.mem_ctrls.rank1.actEnergy            278003040                       # Energy for activate commands per rank (pJ)
system.mem_ctrls.rank1.preEnergy            147762120                       # Energy for precharge commands per rank (pJ)
system.mem_ctrls.rank1.readEnergy          2438381400                       # Energy for read commands per rank (pJ)
system.mem_ctrls.rank1.writeEnergy           11478780                       # Energy for write commands per rank (pJ)
system.mem_ctrls.rank1.refreshEnergy     10432899360.000002                       # Energy for refresh commands per rank (pJ)
system.mem_ctrls.rank1.actBackEnergy      37672493010                       # Energy for active background per rank (pJ)
system.mem_ctrls.rank1.preBackEnergy      19026845760                       # Energy for precharge background per rank (pJ)
system.mem_ctrls.rank1.actPowerDownEnergy            0                       # Energy for active power-down per rank (pJ)
system.mem_ctrls.rank1.prePowerDownEnergy            0                       # Energy for precharge power-down per rank (pJ)
system.mem_ctrls.rank1.selfRefreshEnergy            0                       # Energy for self refresh per rank (pJ)
system.mem_ctrls.rank1.totalEnergy        70007863470                       # Total energy per rank (pJ)
system.mem_ctrls.rank1.averagePower        529.703711                       # Core power per rank (mW)
system.mem_ctrls.rank1.totalIdleTime                0                       # Total Idle time Per DRAM Rank
system.mem_ctrls.rank1.memoryStateTime::IDLE  49094457000                       # Time in different power states
system.mem_ctrls.rank1.memoryStateTime::REF   4413240000                       # Time in different power states
system.mem_ctrls.rank1.memoryStateTime::SREF            0                       # Time in different power states
system.mem_ctrls.rank1.memoryStateTime::PRE_PDN            0                       # Time in different power states
system.mem_ctrls.rank1.memoryStateTime::ACT  78656496000                       # Time in different power states
system.mem_ctrls.rank1.memoryStateTime::ACT_PDN            0                       # Time in different power states
system.mem_ctrls.rank0.actEnergy           1687189140                       # Energy for activate commands per rank (pJ)
system.mem_ctrls.rank0.preEnergy            896758500                       # Energy for precharge commands per rank (pJ)
system.mem_ctrls.rank0.readEnergy         14936608680                       # Energy for read commands per rank (pJ)
system.mem_ctrls.rank0.writeEnergy           15947100                       # Energy for write commands per rank (pJ)
system.mem_ctrls.rank0.refreshEnergy     10432899360.000002                       # Energy for refresh commands per rank (pJ)
system.mem_ctrls.rank0.actBackEnergy      57325353150                       # Energy for active background per rank (pJ)
system.mem_ctrls.rank0.preBackEnergy       2477068800                       # Energy for precharge background per rank (pJ)
system.mem_ctrls.rank0.actPowerDownEnergy            0                       # Energy for active power-down per rank (pJ)
system.mem_ctrls.rank0.prePowerDownEnergy            0                       # Energy for precharge power-down per rank (pJ)
system.mem_ctrls.rank0.selfRefreshEnergy            0                       # Energy for self refresh per rank (pJ)
system.mem_ctrls.rank0.totalEnergy        87771824730                       # Total energy per rank (pJ)
system.mem_ctrls.rank0.averagePower        664.111986                       # Core power per rank (mW)
system.mem_ctrls.rank0.totalIdleTime                0                       # Total Idle time Per DRAM Rank
system.mem_ctrls.rank0.memoryStateTime::IDLE   5090141750                       # Time in different power states
system.mem_ctrls.rank0.memoryStateTime::REF   4413240000                       # Time in different power states
system.mem_ctrls.rank0.memoryStateTime::SREF            0                       # Time in different power states
system.mem_ctrls.rank0.memoryStateTime::PRE_PDN            0                       # Time in different power states
system.mem_ctrls.rank0.memoryStateTime::ACT 122660811250                       # Time in different power states
system.mem_ctrls.rank0.memoryStateTime::ACT_PDN            0                       # Time in different power states
system.mem_ctrls.power_state.pwrStateResidencyTicks::UNDEFINED 132164193000                       # Cumulative time (in ticks) in various power states
system.cpu_clk_domain.clock                       500                       # Clock period in ticks
system.cpu.dtb.walker.power_state.pwrStateResidencyTicks::UNDEFINED 132164193000                       # Cumulative time (in ticks) in various power states
system.cpu.interrupts.clk_domain.clock           8000                       # Clock period in ticks
system.cpu.itb.walker.power_state.pwrStateResidencyTicks::UNDEFINED 132164193000                       # Cumulative time (in ticks) in various power states
system.cpu.power_state.numTransitions               1                       # Number of power state transitions
system.cpu.power_state.pwrStateResidencyTicks::ON 132164193000                       # Cumulative time (in ticks) in various power states

---------- End Simulation Statistics   ----------

---------- Begin Simulation Statistics ----------
final_tick                               132909200000                       # Number of ticks from beginning of simulation (restored from checkpoints and never reset)
host_inst_rate                               40418178                       # Simulator instruction rate (inst/s)
host_mem_usage                                 849456                       # Number of bytes of host memory used
host_op_rate                                 68753219                       # Simulator op (including micro ops) rate (op/s)
host_seconds                                     0.04                       # Real time elapsed on the host
host_tick_rate                            18896199888                       # Simulator tick rate (ticks/s)
sim_freq                                 1000000000000                       # Frequency of simulated ticks
sim_insts                                     1588640                       # Number of instructions simulated
sim_ops                                       2709403                       # Number of ops (including micro ops) simulated
sim_seconds                                  0.000745                       # Number of seconds simulated
sim_ticks                                   745007000                       # Number of ticks simulated
system.cpu.Branches                              1002                       # Number of branches fetched
system.cpu.committedInsts                        7008                       # Number of instructions committed
system.cpu.committedOps                         13016                       # Number of ops (including micro ops) committed
system.cpu.dtb.rdAccesses                        2002                       # TLB accesses on read requests
system.cpu.dtb.rdMisses                             0                       # TLB misses on read requests
system.cpu.dtb.wrAccesses                        1001                       # TLB accesses on write requests
system.cpu.dtb.wrMisses                             0                       # TLB misses on write requests
system.cpu.idle_fraction                            0                       # Percentage of idle cycles
system.cpu.itb.rdAccesses                           0                       # TLB accesses on read requests
system.cpu.itb.rdMisses                             0                       # TLB misses on read requests
system.cpu.itb.wrAccesses                       12011                       # TLB accesses on write requests
system.cpu.itb.wrMisses                             0                       # TLB misses on write requests
system.cpu.not_idle_fraction                        1                       # Percentage of non-idle cycles
system.cpu.numCycles                          1490014                       # number of cpu cycles simulated
system.cpu.numWorkItemsCompleted                    0                       # number of work items this cpu completed
system.cpu.numWorkItemsStarted                      0                       # number of work items this cpu started
system.cpu.num_busy_cycles                    1490014                       # Number of busy cycles
system.cpu.num_cc_register_reads                 5003                       # number of times the CC registers were read
system.cpu.num_cc_register_writes                4006                       # number of times the CC registers were written
system.cpu.num_conditional_control_insts         1000                       # number of instructions that are conditional controls
system.cpu.num_fp_alu_accesses                   6002                       # Number of float alu accesses
system.cpu.num_fp_insts                          6002                       # number of float instructions
system.cpu.num_fp_register_reads                 7000                       # number of times the floating registers were read
system.cpu.num_fp_register_writes                5002                       # number of times the floating registers were written
system.cpu.num_func_calls                           2                       # number of times a function call or return occured
system.cpu.num_idle_cycles                          0                       # Number of idle cycles
system.cpu.num_int_alu_accesses                 10014                       # Number of integer alu accesses
system.cpu.num_int_insts                        10014                       # number of integer instructions
system.cpu.num_int_register_reads               17027                       # number of times the integer registers were read
system.cpu.num_int_register_writes               6009                       # number of times the integer registers were written
system.cpu.num_load_insts                        2002                       # Number of load instructions
system.cpu.num_mem_refs                          3003                       # number of memory refs
system.cpu.num_store_insts                       1001                       # Number of store instructions
system.cpu.num_vec_alu_accesses                     0                       # Number of vector alu accesses
system.cpu.num_vec_insts                            0                       # number of vector instructions
system.cpu.num_vec_register_reads                   0                       # number of times the vector registers were read
system.cpu.num_vec_register_writes                  0                       # number of times the vector registers were written
system.cpu.op_class::No_OpClass                     1      0.01%      0.01% # Class of executed instruction
system.cpu.op_class::IntAlu                      7011     53.86%     53.87% # Class of executed instruction
system.cpu.op_class::IntMult                        0      0.00%     53.87% # Class of executed instruction
system.cpu.op_class::IntDiv                         0      0.00%     53.87% # Class of executed instruction
system.cpu.op_class::FloatAdd                    1001      7.69%     61.56% # Class of executed instruction
system.cpu.op_class::FloatCmp                       0      0.00%     61.56% # Class of executed instruction
system.cpu.op_class::FloatCvt                       0      0.00%     61.56% # Class of executed instruction
system.cpu.op_class::FloatMult                      0      0.00%     61.56% # Class of executed instruction
system.cpu.op_class::FloatMultAcc                   0      0.00%     61.56% # Class of executed instruction
system.cpu.op_class::FloatDiv                       0      0.00%     61.56% # Class of executed instruction
system.cpu.op_class::FloatMisc                      0      0.00%     61.56% # Class of executed instruction
system.cpu.op_class::FloatSqrt                      0      0.00%     61.56% # Class of executed instruction
system.cpu.op_class::SimdAdd                        0      0.00%     61.56% # Class of executed instruction
system.cpu.op_class::SimdAddAcc                     0      0.00%     61.56% # Class of executed instruction
system.cpu.op_class::SimdAlu                        0      0.00%     61.56% # Class of executed instruction
system.cpu.op_class::SimdCmp                        0      0.00%     61.56% # Class of executed instruction
system.cpu.op_class::SimdCvt                        0      0.00%     61.56% # Class of executed instruction
system.cpu.op_class::SimdMisc                       0      0.00%     61.56% # Class of executed instruction
system.cpu.op_class::SimdMult                       0      0.00%     61.56% # Class of executed instruction
system.cpu.op_class::SimdMultAcc                    0      0.00%     61.56% # Class of executed instruction
system.cpu.op_class::SimdShift                      0      0.00%     61.56% # Class of executed instruction
system.cpu.op_class::SimdShiftAcc                   0      0.00%     61.56% # Class of executed instruction
system.cpu.op_class::SimdDiv                        0      0.00%     61.56% # Class of executed instruction
system.cpu.op_class::SimdSqrt                       0      0.00%     61.56% # Class of executed instruction
system.cpu.op_class::SimdFloatAdd                1000      7.68%     69.25% # Class of executed instruction
system.cpu.op_class::SimdFloatAlu                   0      0.00%     69.25% # Class of executed instruction
system.cpu.op_class::SimdFloatCmp                   0      0.00%     69.25% # Class of executed instruction
system.cpu.op_class::SimdFloatCvt                   0      0.00%     69.25% # Class of executed instruction
system.cpu.op_class::SimdFloatDiv                   0      0.00%     69.25% # Class of executed instruction
system.cpu.op_class::SimdFloatMisc                  0      0.00%     69.25% # Class of executed instruction
system.cpu.op_class::SimdFloatMult               1000      7.68%     76.93% # Class of executed instruction
system.cpu.op_class::SimdFloatMultAcc               0      0.00%     76.93% # Class of executed instruction
system.cpu.op_class::SimdFloatSqrt                  0      0.00%     76.93% # Class of executed instruction
system.cpu.op_class::SimdReduceAdd                  0      0.00%     76.93% # Class of executed instruction
system.cpu.op_class::SimdReduceAlu                  0      0.00%     76.93% # Class of executed instruction
system.cpu.op_class::SimdReduceCmp                  0      0.00%     76.93% # Class of executed instruction
system.cpu.op_class::SimdFloatReduceAdd             0      0.00%     76.93% # Class of executed instruction
system.cpu.op_class::SimdFloatReduceCmp             0      0.00%     76.93% # Class of executed instruction
system.cpu.op_class::SimdAes                        0      0.00%     76.93% # Class of executed instruction
system.cpu.op_class::SimdAesMix                     0      0.00%     76.93% # Class of executed instruction
system.cpu.op_class::SimdSha1Hash                   0      0.00%     76.93% # Class of executed instruction
system.cpu.op_class::SimdSha1Hash2                  0      0.00%     76.93% # Class of executed instruction
system.cpu.op_class::SimdSha256Hash                 0      0.00%     76.93% # Class of executed instruction
system.cpu.op_class::SimdSha256Hash2                0      0.00%     76.93% # Class of executed instruction
system.cpu.op_class::SimdShaSigma2                  0      0.00%     76.93% # Class of executed instruction
system.cpu.op_class::SimdShaSigma3                  0      0.00%     76.93% # Class of executed instruction
system.cpu.op_class::SimdPredAlu                    0      0.00%     76.93% # Class of executed instruction
system.cpu.op_class::MemRead                        1      0.01%     76.94% # Class of executed instruction
system.cpu.op_class::MemWrite                       1      0.01%     76.94% # Class of executed instruction
system.cpu.op_class::FloatMemRead                2001     15.37%     92.32% # Class of executed instruction
system.cpu.op_class::FloatMemWrite               1000      7.68%    100.00% # Class of executed instruction
system.cpu.op_class::IprAccess                      0      0.00%    100.00% # Class of executed instruction
system.cpu.op_class::InstPrefetch                   0      0.00%    100.00% # Class of executed instruction
system.cpu.op_class::total                      13016                       # Class of executed instruction
system.cpu.workload.numSyscalls                     0                       # Number of system calls
system.membus.snoop_filter.hit_multi_requests            0                       # Number of requests hitting in the snoop filter with multiple (>1) holders of the requested data.
system.membus.snoop_filter.hit_multi_snoops            0                       # Number of snoops hitting in the snoop filter with multiple (>1) holders of the requested data.
system.membus.snoop_filter.hit_single_requests            0                       # Number of requests hitting in the snoop filter with a single holder of the requested data.
system.membus.snoop_filter.hit_single_snoops            0                       # Number of snoops hitting in the snoop filter with a single holder of the requested data.
system.membus.snoop_filter.tot_requests             0                       # Total number of requests made to the snoop filter.
system.membus.snoop_filter.tot_snoops               0                       # Total number of snoops made to the snoop filter.
system.membus.trans_dist::ReadReq               14013                       # Transaction distribution
system.membus.trans_dist::ReadResp              14013                       # Transaction distribution
system.membus.trans_dist::WriteReq               1001                       # Transaction distribution
system.membus.trans_dist::WriteResp              1001                       # Transaction distribution
system.membus.pkt_count_system.cpu.icache_port::system.mem_ctrls.port        24022                       # Packet count per connected master and slave (bytes)
system.membus.pkt_count_system.cpu.icache_port::total        24022                       # Packet count per connected master and slave (bytes)
system.membus.pkt_count_system.cpu.dcache_port::system.mem_ctrls.port         6006                       # Packet count per connected master and slave (bytes)
system.membus.pkt_count_system.cpu.dcache_port::total         6006                       # Packet count per connected master and slave (bytes)
system.membus.pkt_count::total                  30028                       # Packet count per connected master and slave (bytes)
system.membus.pkt_size_system.cpu.icache_port::system.mem_ctrls.port        96088                       # Cumulative packet size per connected master and slave (bytes)
system.membus.pkt_size_system.cpu.icache_port::total        96088                       # Cumulative packet size per connected master and slave (bytes)
system.membus.pkt_size_system.cpu.dcache_port::system.mem_ctrls.port        24024                       # Cumulative packet size per connected master and slave (bytes)
system.membus.pkt_size_system.cpu.dcache_port::total        24024                       # Cumulative packet size per connected master and slave (bytes)
system.membus.pkt_size::total                  120112                       # Cumulative packet size per connected master and slave (bytes)
system.membus.snoops                                0                       # Total snoops (count)
system.membus.snoopTraffic                          0                       # Total snoop traffic (bytes)
system.membus.snoop_fanout::samples             15014                       # Request fanout histogram
system.membus.snoop_fanout::mean                    0                       # Request fanout histogram
system.membus.snoop_fanout::stdev                   0                       # Request fanout histogram
system.membus.snoop_fanout::underflows              0      0.00%      0.00% # Request fanout histogram
system.membus.snoop_fanout::0                   15014    100.00%    100.00% # Request fanout histogram
system.membus.snoop_fanout::1                       0      0.00%    100.00% # Request fanout histogram
system.membus.snoop_fanout::overflows               0      0.00%    100.00% # Request fanout histogram
system.membus.snoop_fanout::min_value               0                       # Request fanout histogram
system.membus.snoop_fanout::max_value               0                       # Request fanout histogram
system.membus.snoop_fanout::total               15014                       # Request fanout histogram
system.membus.reqLayer2.occupancy            16015000                       # Layer occupancy (ticks)
system.membus.reqLayer2.utilization               2.1                       # Layer utilization (%)
system.membus.respLayer1.occupancy           27206250                       # Layer occupancy (ticks)
system.membus.respLayer1.utilization              3.7                       # Layer utilization (%)
system.membus.respLayer2.occupancy            5554500                       # Layer occupancy (ticks)
system.membus.respLayer2.utilization              0.7                       # Layer utilization (%)
system.membus.power_state.pwrStateResidencyTicks::UNDEFINED    745007000                       # Cumulative time (in ticks) in various power states
system.voltage_domain.voltage                       1                       # Voltage in Volts
system.clk_domain.clock                          1000                       # Clock period in ticks
system.cpu_voltage_domain.voltage                   1                       # Voltage in Volts
system.mem_ctrls.bytes_read::.cpu.inst          96088                       # Number of bytes read from this memory
system.mem_ctrls.bytes_read::.cpu.data          16016                       # Number of bytes read from this memory
system.mem_ctrls.bytes_read::total             112104                       # Number of bytes read from this memory
system.mem_ctrls.bytes_inst_read::.cpu.inst        96088                       # Number of instructions bytes read from this memory
system.mem_ctrls.bytes_inst_read::total         96088                       # Number of instructions bytes read from this memory
system.mem_ctrls.bytes_written::.cpu.data         8008                       # Number of bytes written to this memory
system.mem_ctrls.bytes_written::total            8008                       # Number of bytes written to this memory
system.mem_ctrls.num_reads::.cpu.inst           12011                       # Number of read requests responded to by this memory
system.mem_ctrls.num_reads::.cpu.data            2002                       # Number of read requests responded to by this memory
system.mem_ctrls.num_reads::total               14013                       # Number of read requests responded to by this memory
system.mem_ctrls.num_writes::.cpu.data           1001                       # Number of write requests responded to by this memory
system.mem_ctrls.num_writes::total               1001                       # Number of write requests responded to by this memory
system.mem_ctrls.bw_read::.cpu.inst         128975969                       # Total read bandwidth from this memory (bytes/s)
system.mem_ctrls.bw_read::.cpu.data          21497785                       # Total read bandwidth from this memory (bytes/s)
system.mem_ctrls.bw_read::total             150473754                       # Total read bandwidth from this memory (bytes/s)
system.mem_ctrls.bw_inst_read::.cpu.inst    128975969                       # Instruction read bandwidth from this memory (bytes/s)
system.mem_ctrls.bw_inst_read::total        128975969                       # Instruction read bandwidth from this memory (bytes/s)
system.mem_ctrls.bw_write::.cpu.data         10748892                       # Write bandwidth from this memory (bytes/s)
system.mem_ctrls.bw_write::total             10748892                       # Write bandwidth from this memory (bytes/s)
system.mem_ctrls.bw_total::.cpu.inst        128975969                       # Total bandwidth to/from this memory (bytes/s)
system.mem_ctrls.bw_total::.cpu.data         32246677                       # Total bandwidth to/from this memory (bytes/s)
system.mem_ctrls.bw_total::total            161222646                       # Total bandwidth to/from this memory (bytes/s)
system.mem_ctrls.avgPriority_.cpu.inst::samples     12011.00                       # Average QoS priority value for accepted requests
system.mem_ctrls.avgPriority_.cpu.data::samples      2128.00                       # Average QoS priority value for accepted requests
system.mem_ctrls.priorityMinLatency      0.000000018750                       # per QoS priority minimum request to response latency (s)
system.mem_ctrls.priorityMaxLatency      0.002120039250                       # per QoS priority maximum request to response latency (s)
system.mem_ctrls.numReadWriteTurnArounds            8                       # Number of turnarounds from READ to WRITE
system.mem_ctrls.numWriteReadTurnArounds            8                       # Number of turnarounds from WRITE to READ
system.mem_ctrls.numStayReadState               29209                       # Number of times bus staying in READ state
system.mem_ctrls.numStayWriteState                120                       # Number of times bus staying in WRITE state
system.mem_ctrls.readReqs                       14013                       # Number of read requests accepted
system.mem_ctrls.writeReqs                       1001                       # Number of write requests accepted
system.mem_ctrls.readBursts                     14013                       # Number of DRAM read bursts, including those serviced by the write queue
system.mem_ctrls.writeBursts                     1001                       # Number of DRAM write bursts, including those merged in the write queue
system.mem_ctrls.servicedByWrQ                      0                       # Number of DRAM read bursts serviced by the write queue
system.mem_ctrls.mergedWrBursts                   875                       # Number of DRAM write bursts merged with an existing one
system.mem_ctrls.neitherReadNorWriteReqs            0                       # Number of requests that are neither read nor write
system.mem_ctrls.perBankRdBursts::0             12013                       # Per bank write bursts
system.mem_ctrls.perBankRdBursts::1                 0                       # Per bank write bursts
system.mem_ctrls.perBankRdBursts::2                 0                       # Per bank write bursts
system.mem_ctrls.perBankRdBursts::3                 0                       # Per bank write bursts
system.mem_ctrls.perBankRdBursts::4               434                       # Per bank write bursts
system.mem_ctrls.perBankRdBursts::5               512                       # Per bank write bursts
system.mem_ctrls.perBankRdBursts::6                 0                       # Per bank write bursts
system.mem_ctrls.perBankRdBursts::7                 0                       # Per bank write bursts
system.mem_ctrls.perBankRdBursts::8                 0                       # Per bank write bursts
system.mem_ctrls.perBankRdBursts::9                 0                       # Per bank write bursts
system.mem_ctrls.perBankRdBursts::10                0                       # Per bank write bursts
system.mem_ctrls.perBankRdBursts::11                0                       # Per bank write bursts
system.mem_ctrls.perBankRdBursts::12                0                       # Per bank write bursts
system.mem_ctrls.perBankRdBursts::13                0                       # Per bank write bursts
system.mem_ctrls.perBankRdBursts::14              512                       # Per bank write bursts
system.mem_ctrls.perBankRdBursts::15              542                       # Per bank write bursts
system.mem_ctrls.perBankWrBursts::0                 1                       # Per bank write bursts
system.mem_ctrls.perBankWrBursts::1                 0                       # Per bank write bursts
system.mem_ctrls.perBankWrBursts::2                 0                       # Per bank write bursts
system.mem_ctrls.perBankWrBursts::3                 0                       # Per bank write bursts
system.mem_ctrls.perBankWrBursts::4                40                       # Per bank write bursts
system.mem_ctrls.perBankWrBursts::5                63                       # Per bank write bursts
system.mem_ctrls.perBankWrBursts::6                 0                       # Per bank write bursts
system.mem_ctrls.perBankWrBursts::7                 0                       # Per bank write bursts
system.mem_ctrls.perBankWrBursts::8                 0                       # Per bank write bursts
system.mem_ctrls.perBankWrBursts::9                 0                       # Per bank write bursts
system.mem_ctrls.perBankWrBursts::10                0                       # Per bank write bursts
system.mem_ctrls.perBankWrBursts::11                0                       # Per bank write bursts
system.mem_ctrls.perBankWrBursts::12                0                       # Per bank write bursts
system.mem_ctrls.perBankWrBursts::13                0                       # Per bank write bursts
system.mem_ctrls.perBankWrBursts::14               15                       # Per bank write bursts
system.mem_ctrls.perBankWrBursts::15                9                       # Per bank write bursts
system.mem_ctrls.avgRdQLen                       1.00                       # Average read queue length when enqueuing
system.mem_ctrls.avgWrQLen                      25.49                       # Average write queue length when enqueuing
system.mem_ctrls.totQLat                     37118500                       # Total ticks spent queuing
system.mem_ctrls.totBusLat                   70065000                       # Total ticks spent in databus transfers
system.mem_ctrls.totMemAccLat               299862250                       # Total ticks spent from burst creation until serviced by the DRAM
system.mem_ctrls.avgQLat                      2648.86                       # Average queueing delay per DRAM burst
system.mem_ctrls.avgBusLat                    5000.00                       # Average bus latency per DRAM burst
system.mem_ctrls.avgMemAccLat                21398.86                       # Average memory access latency per DRAM burst
system.mem_ctrls.numRdRetry                         0                       # Number of times read queue was full causing retry
system.mem_ctrls.numWrRetry                         0                       # Number of times write queue was full causing retry
[...]
system.mem_ctrls.wrQLenPdf::17                     18                       # What write queue length does an incoming req see
system.mem_ctrls.wrQLenPdf::18                     18                       # What write queue length does an incoming req see
system.mem_ctrls.wrQLenPdf::19                     18                       # What write queue length does an incoming req see
system.mem_ctrls.wrQLenPdf::20                     18                       # What write queue length does an incoming req see
system.mem_ctrls.wrQLenPdf::21                     18                       # What write queue length does an incoming req see
system.mem_ctrls.wrQLenPdf::22                     18                       # What write queue length does an incoming req see
system.mem_ctrls.wrQLenPdf::23                     18                       # What write queue length does an incoming req see
system.mem_ctrls.wrQLenPdf::24                     17                       # What write queue length does an incoming req see
system.mem_ctrls.wrQLenPdf::25                     17                       # What write queue length does an incoming req see
system.mem_ctrls.wrQLenPdf::26                     18                       # What write queue length does an incoming req see
system.mem_ctrls.wrQLenPdf::27                     18                       # What write queue length does an incoming req see
system.mem_ctrls.wrQLenPdf::28                     18                       # What write queue length does an incoming req see
system.mem_ctrls.wrQLenPdf::29                     18                       # What write queue length does an incoming req see
system.mem_ctrls.wrQLenPdf::30                     18                       # What write queue length does an incoming req see
system.mem_ctrls.wrQLenPdf::31                     18                       # What write queue length does an incoming req see
system.mem_ctrls.wrQLenPdf::32                     18                       # What write queue length does an incoming req see
system.mem_ctrls.wrQLenPdf::33                      0                       # What write queue length does an incoming req see
system.mem_ctrls.wrQLenPdf::34                      0                       # What write queue length does an incoming req see
system.mem_ctrls.wrQLenPdf::35                      0                       # What write queue length does an incoming req see
system.mem_ctrls.wrQLenPdf::36                      0                       # What write queue length does an incoming req see
system.mem_ctrls.wrQLenPdf::37                      0                       # What write queue length does an incoming req see
system.mem_ctrls.wrQLenPdf::38                      0                       # What write queue length does an incoming req see
system.mem_ctrls.wrQLenPdf::39                      0                       # What write queue length does an incoming req see
system.mem_ctrls.wrQLenPdf::40                      0                       # What write queue length does an incoming req see
system.mem_ctrls.wrQLenPdf::41                      0                       # What write queue length does an incoming req see
system.mem_ctrls.wrQLenPdf::42                      0                       # What write queue length does an incoming req see
system.mem_ctrls.wrQLenPdf::43                      0                       # What write queue length does an incoming req see
system.mem_ctrls.wrQLenPdf::44                      0                       # What write queue length does an incoming req see
system.mem_ctrls.wrQLenPdf::45                      0                       # What write queue length does an incoming req see
system.mem_ctrls.wrQLenPdf::46                      0                       # What write queue length does an incoming req see
system.mem_ctrls.wrQLenPdf::47                      0                       # What write queue length does an incoming req see
system.mem_ctrls.wrQLenPdf::48                      0                       # What write queue length does an incoming req see
system.mem_ctrls.wrQLenPdf::49                      0                       # What write queue length does an incoming req see
system.mem_ctrls.wrQLenPdf::50                      0                       # What write queue length does an incoming req see
system.mem_ctrls.wrQLenPdf::51                      0                       # What write queue length does an incoming req see
system.mem_ctrls.wrQLenPdf::52                      0                       # What write queue length does an incoming req see
system.mem_ctrls.wrQLenPdf::53                      0                       # What write queue length does an incoming req see
system.mem_ctrls.wrQLenPdf::54                      0                       # What write queue length does an incoming req see
system.mem_ctrls.wrQLenPdf::55                      0                       # What write queue length does an incoming req see
system.mem_ctrls.wrQLenPdf::56                      0                       # What write queue length does an incoming req see
system.mem_ctrls.wrQLenPdf::57                      0                       # What write queue length does an incoming req see
system.mem_ctrls.wrQLenPdf::58                      0                       # What write queue length does an incoming req see
system.mem_ctrls.wrQLenPdf::59                      0                       # What write queue length does an incoming req see
system.mem_ctrls.wrQLenPdf::60                      0                       # What write queue length does an incoming req see
system.mem_ctrls.wrQLenPdf::61                      0                       # What write queue length does an incoming req see
system.mem_ctrls.wrQLenPdf::62                      0                       # What write queue length does an incoming req see
system.mem_ctrls.wrQLenPdf::63                      0                       # What write queue length does an incoming req see
system.mem_ctrls.bytesPerActivate::samples         4465                       # Bytes accessed per row activation
system.mem_ctrls.bytesPerActivate::mean    589.387682                       # Bytes accessed per row activation
system.mem_ctrls.bytesPerActivate::gmean   375.684116                       # Bytes accessed per row activation
system.mem_ctrls.bytesPerActivate::stdev   413.749217                       # Bytes accessed per row activation
system.mem_ctrls.bytesPerActivate::0-127          918     20.56%     20.56% # Bytes accessed per row activation
system.mem_ctrls.bytesPerActivate::128-255          561     12.56%     33.12% # Bytes accessed per row activation
system.mem_ctrls.bytesPerActivate::256-383          312      6.99%     40.11% # Bytes accessed per row activation
system.mem_ctrls.bytesPerActivate::384-511          255      5.71%     45.82% # Bytes accessed per row activation
system.mem_ctrls.bytesPerActivate::512-639          208      4.66%     50.48% # Bytes accessed per row activation
system.mem_ctrls.bytesPerActivate::640-767          130      2.91%     53.39% # Bytes accessed per row activation
system.mem_ctrls.bytesPerActivate::768-895          107      2.40%     55.79% # Bytes accessed per row activation
system.mem_ctrls.bytesPerActivate::896-1023          157      3.52%     59.31% # Bytes accessed per row activation
system.mem_ctrls.bytesPerActivate::1024-1151         1817     40.69%    100.00% # Bytes accessed per row activation
system.mem_ctrls.bytesPerActivate::total         4465                       # Bytes accessed per row activation
system.mem_ctrls.rdPerTurnAround::samples           18                       # Reads before turning the bus around for writes
system.mem_ctrls.rdPerTurnAround::mean    2306.555556                       # Reads before turning the bus around for writes
system.mem_ctrls.rdPerTurnAround::gmean   1833.100797                       # Reads before turning the bus around for writes
system.mem_ctrls.rdPerTurnAround::stdev   1543.817889                       # Reads before turning the bus around for writes
system.mem_ctrls.rdPerTurnAround::256-511            1      5.56%      5.56% # Reads before turning the bus around for writes
system.mem_ctrls.rdPerTurnAround::512-767            1      5.56%     11.11% # Reads before turning the bus around for writes
system.mem_ctrls.rdPerTurnAround::768-1023            2     11.11%     22.22% # Reads before turning the bus around for writes
system.mem_ctrls.rdPerTurnAround::1024-1279            1      5.56%     27.78% # Reads before turning the bus around for writes
system.mem_ctrls.rdPerTurnAround::1280-1535            2     11.11%     38.89% # Reads before turning the bus around for writes
system.mem_ctrls.rdPerTurnAround::1536-1791            1      5.56%     44.44% # Reads before turning the bus around for writes
system.mem_ctrls.rdPerTurnAround::1792-2047            3     16.67%     61.11% # Reads before turning the bus around for writes
system.mem_ctrls.rdPerTurnAround::2560-2815            1      5.56%     66.67% # Reads before turning the bus around for writes
system.mem_ctrls.rdPerTurnAround::3072-3327            1      5.56%     72.22% # Reads before turning the bus around for writes
system.mem_ctrls.rdPerTurnAround::3328-3583            2     11.11%     83.33% # Reads before turning the bus around for writes
system.mem_ctrls.rdPerTurnAround::3840-4095            1      5.56%     88.89% # Reads before turning the bus around for writes
system.mem_ctrls.rdPerTurnAround::4608-4863            1      5.56%     94.44% # Reads before turning the bus around for writes
system.mem_ctrls.rdPerTurnAround::5888-6143            1      5.56%    100.00% # Reads before turning the bus around for writes
system.mem_ctrls.rdPerTurnAround::total            18                       # Reads before turning the bus around for writes
system.mem_ctrls.wrPerTurnAround::samples           18                       # Writes before turning the bus around for reads
system.mem_ctrls.wrPerTurnAround::mean      16.333333                       # Writes before turning the bus around for reads
system.mem_ctrls.wrPerTurnAround::gmean     16.317191                       # Writes before turning the bus around for reads
system.mem_ctrls.wrPerTurnAround::stdev      0.766965                       # Writes before turning the bus around for reads
system.mem_ctrls.wrPerTurnAround::16               15     83.33%     83.33% # Writes before turning the bus around for reads
system.mem_ctrls.wrPerTurnAround::18                3     16.67%    100.00% # Writes before turning the bus around for reads
system.mem_ctrls.wrPerTurnAround::total            18                       # Writes before turning the bus around for reads
system.mem_ctrls.bytesReadDRAM                2612928                       # Total number of bytes read from DRAM
system.mem_ctrls.bytesReadWrQ                   31552                       # Total number of bytes read from write queue
system.mem_ctrls.bytesWritten                   18816                       # Total number of bytes written to DRAM
system.mem_ctrls.bytesReadSys                  314634                       # Total read bytes from the system interface side
system.mem_ctrls.bytesWrittenSys                24682                       # Total written bytes from the system interface side
system.mem_ctrls.avgRdBW                      1167.27                       # Average DRAM read bandwidth in MiByte/s
system.mem_ctrls.avgWrBW                         8.41                       # Average achieved write bandwidth in MiByte/s
system.mem_ctrls.avgRdBWSys                    140.56                       # Average system read bandwidth in MiByte/s
system.mem_ctrls.avgWrBWSys                     11.03                       # Average system write bandwidth in MiByte/s
system.mem_ctrls.peakBW                      12800.00                       # Theoretical peak bandwidth in MiByte/s
system.mem_ctrls.busUtil                         9.18                       # Data bus utilization in percentage
system.mem_ctrls.busUtilRead                     9.12                       # Data bus utilization in percentage for reads
system.mem_ctrls.busUtilWrite                    0.07                       # Data bus utilization in percentage for writes
system.mem_ctrls.totGap                    2238449000                       # Total gap between requests
system.mem_ctrls.avgGap                      49619.81                       # Average gap between requests
system.mem_ctrls.masterReadBytes::.cpu.inst       267256                       # Per-master bytes read from memory
system.mem_ctrls.masterReadBytes::.cpu.data        43789                       # Per-master bytes read from memory
system.mem_ctrls.masterWriteBytes::.cpu.data         2033                       # Per-master bytes write to memory
system.mem_ctrls.masterReadRate::.cpu.inst 119390770.060996264219                       # Per-master bytes read from memory rate (Bytes/sec)
system.mem_ctrls.masterReadRate::.cpu.data 19561777.584791231900                       # Per-master bytes read from memory rate (Bytes/sec)
system.mem_ctrls.masterWriteRate::.cpu.data 908198.265086678788                       # Per-master bytes write to memory rate (Bytes/sec)
system.mem_ctrls.masterReadAccesses::.cpu.inst        33407                       # Per-master read serviced memory accesses
system.mem_ctrls.masterReadAccesses::.cpu.data         7913                       # Per-master read serviced memory accesses
system.mem_ctrls.masterWriteAccesses::.cpu.data         3792                       # Per-master write serviced memory accesses
system.mem_ctrls.masterReadTotalLat::.cpu.inst    727804250                       # Per-master read total memory access latency
system.mem_ctrls.masterReadTotalLat::.cpu.data    184952750                       # Per-master read total memory access latency
system.mem_ctrls.masterWriteTotalLat::.cpu.data  58052668000                       # Per-master write total memory access latency
system.mem_ctrls.masterReadAvgLat::.cpu.inst     21785.98                       # Per-master read average memory access latency
system.mem_ctrls.masterReadAvgLat::.cpu.data     23373.28                       # Per-master read average memory access latency
system.mem_ctrls.masterWriteAvgLat::.cpu.data  15309247.89                       # Per-master write average memory access latency
system.mem_ctrls.pageHitRate                    89.14                       # Row buffer hit rate, read and write combined
system.mem_ctrls.rank1.actEnergy              9974580                       # Energy for activate commands per rank (pJ)
system.mem_ctrls.rank1.preEnergy              5290230                       # Energy for precharge commands per rank (pJ)
system.mem_ctrls.rank1.readEnergy            87607800                       # Energy for read commands per rank (pJ)
system.mem_ctrls.rank1.writeEnergy             229680                       # Energy for write commands per rank (pJ)
system.mem_ctrls.rank1.refreshEnergy     177016320.000000                       # Energy for refresh commands per rank (pJ)
system.mem_ctrls.rank1.actBackEnergy        608857470                       # Energy for active background per rank (pJ)
system.mem_ctrls.rank1.preBackEnergy        346861440                       # Energy for precharge background per rank (pJ)
system.mem_ctrls.rank1.actPowerDownEnergy            0                       # Energy for active power-down per rank (pJ)
system.mem_ctrls.rank1.prePowerDownEnergy            0                       # Energy for precharge power-down per rank (pJ)
system.mem_ctrls.rank1.selfRefreshEnergy            0                       # Energy for self refresh per rank (pJ)
system.mem_ctrls.rank1.totalEnergy         1235837520                       # Total energy per rank (pJ)
system.mem_ctrls.rank1.averagePower        552.083370                       # Core power per rank (mW)
system.mem_ctrls.rank1.totalIdleTime                0                       # Total Idle time Per DRAM Rank
system.mem_ctrls.rank1.memoryStateTime::IDLE    895182000                       # Time in different power states
system.mem_ctrls.rank1.memoryStateTime::REF     74880000                       # Time in different power states
system.mem_ctrls.rank1.memoryStateTime::SREF            0                       # Time in different power states
system.mem_ctrls.rank1.memoryStateTime::PRE_PDN            0                       # Time in different power states
system.mem_ctrls.rank1.memoryStateTime::ACT   1268436000                       # Time in different power states
system.mem_ctrls.rank1.memoryStateTime::ACT_PDN            0                       # Time in different power states
system.mem_ctrls.rank0.actEnergy             21919800                       # Energy for activate commands per rank (pJ)
system.mem_ctrls.rank0.preEnergy             11654445                       # Energy for precharge commands per rank (pJ)
system.mem_ctrls.rank0.readEnergy           203896980                       # Energy for read commands per rank (pJ)
system.mem_ctrls.rank0.writeEnergy            1305000                       # Energy for write commands per rank (pJ)
system.mem_ctrls.rank0.refreshEnergy     177016320.000000                       # Energy for refresh commands per rank (pJ)
system.mem_ctrls.rank0.actBackEnergy        981055500                       # Energy for active background per rank (pJ)
system.mem_ctrls.rank0.preBackEnergy         33431520                       # Energy for precharge background per rank (pJ)
system.mem_ctrls.rank0.actPowerDownEnergy            0                       # Energy for active power-down per rank (pJ)
system.mem_ctrls.rank0.prePowerDownEnergy            0                       # Energy for precharge power-down per rank (pJ)
system.mem_ctrls.rank0.selfRefreshEnergy            0                       # Energy for self refresh per rank (pJ)
system.mem_ctrls.rank0.totalEnergy         1430279565                       # Total energy per rank (pJ)
system.mem_ctrls.rank0.averagePower        638.946099                       # Core power per rank (mW)
system.mem_ctrls.rank0.totalIdleTime                0                       # Total Idle time Per DRAM Rank
system.mem_ctrls.rank0.memoryStateTime::IDLE     74598250                       # Time in different power states
system.mem_ctrls.rank0.memoryStateTime::REF     74880000                       # Time in different power states
system.mem_ctrls.rank0.memoryStateTime::SREF            0                       # Time in different power states
system.mem_ctrls.rank0.memoryStateTime::PRE_PDN            0                       # Time in different power states
system.mem_ctrls.rank0.memoryStateTime::ACT   2089019750                       # Time in different power states
system.mem_ctrls.rank0.memoryStateTime::ACT_PDN            0                       # Time in different power states
system.mem_ctrls.power_state.pwrStateResidencyTicks::UNDEFINED   2238498000                       # Cumulative time (in ticks) in various power states
system.cpu_clk_domain.clock                       500                       # Clock period in ticks
system.cpu.dtb.walker.power_state.pwrStateResidencyTicks::UNDEFINED 135147698000                       # Cumulative time (in ticks) in various power states
system.cpu.interrupts.clk_domain.clock           8000                       # Clock period in ticks
system.cpu.itb.walker.power_state.pwrStateResidencyTicks::UNDEFINED 135147698000                       # Cumulative time (in ticks) in various power states
system.cpu.power_state.numTransitions               1                       # Number of power state transitions
system.cpu.power_state.pwrStateResidencyTicks::ON 135147698000                       # Cumulative time (in ticks) in various power states

---------- End Simulation Statistics   ----------
