
---------- Begin Simulation Statistics ----------
final_tick                                 2165978000                       # Number of ticks from beginning of simulation (restored from checkpoints and never reset)
host_inst_rate                                 145921                       # Simulator instruction rate (inst/s)
host_mem_usage                                 851880                       # Number of bytes of host memory used
host_op_rate                                   146931                       # Simulator op (including micro ops) rate (op/s)
host_seconds                                     6.85                       # Real time elapsed on the host
host_tick_rate                              316052104                       # Simulator tick rate (ticks/s)
sim_freq                                 1000000000000                       # Frequency of simulated ticks
sim_insts                                     1000001                       # Number of instructions simulated
sim_ops                                       1006951                       # Number of ops (including micro ops) simulated
sim_seconds                                  0.002166                       # Number of seconds simulated
sim_ticks                                  2165978000                       # Number of ticks simulated
system.cpu.branchPred.BTBCorrect                    0                       # Number of correct BTB predictions (this stat may not work properly.
system.cpu.branchPred.BTBHitPct             99.115186                       # BTB Hit Percentage
system.cpu.branchPred.BTBHits                  130053                       # Number of BTB hits
system.cpu.branchPred.BTBLookups               131214                       # Number of BTB lookups
system.cpu.branchPred.RASInCorrect               2153                       # Number of incorrect RAS predictions.
system.cpu.branchPred.condIncorrect             36744                       # Number of conditional branches incorrect
system.cpu.branchPred.condPredicted            152728                       # Number of conditional branches predicted
system.cpu.branchPred.indirectHits                  0                       # Number of indirect target hits.
system.cpu.branchPred.indirectLookups              80                       # Number of indirect predictor lookups.
system.cpu.branchPred.indirectMisses               80                       # Number of indirect misses.
system.cpu.branchPred.lookups                  171929                       # Number of BP lookups
system.cpu.branchPred.usedRAS                    7262                       # Number of times the RAS was used to get a target.
system.cpu.branchPredindirectMispredicted           47                       # Number of mispredicted indirect branches.
system.cpu.committedInsts                     1000001                       # Number of instructions committed
system.cpu.committedOps                       1006951                       # Number of ops (including micro ops) committed
system.cpu.cpi                               4.331952                       # CPI: cycles per instruction
system.cpu.discardedOps                         96169                       # Number of ops (including micro ops) which were discarded before commit
system.cpu.dtb.accesses                             0                       # DTB accesses
system.cpu.dtb.align_faults                         0                       # Number of TLB faults due to alignment restrictions
system.cpu.dtb.domain_faults                        0                       # Number of TLB faults due to domain restrictions
system.cpu.dtb.flush_entries                        0                       # Number of entries that have been flushed from TLB
system.cpu.dtb.flush_tlb                            0                       # Number of times complete TLB was flushed
system.cpu.dtb.flush_tlb_asid                       0                       # Number of times TLB was flushed by ASID
system.cpu.dtb.flush_tlb_mva                        0                       # Number of times TLB was flushed by MVA
system.cpu.dtb.flush_tlb_mva_asid                   0                       # Number of times TLB was flushed by MVA & ASID
system.cpu.dtb.hits                                 0                       # DTB hits
system.cpu.dtb.inst_accesses                        0                       # ITB inst accesses
system.cpu.dtb.inst_hits                            0                       # ITB inst hits
system.cpu.dtb.inst_misses                          0                       # ITB inst misses
system.cpu.dtb.misses                               0                       # DTB misses
system.cpu.dtb.perms_faults                         0                       # Number of TLB faults due to permissions restrictions
system.cpu.dtb.prefetch_faults                      0                       # Number of TLB faults due to prefetch
system.cpu.dtb.read_accesses                        0                       # DTB read accesses
system.cpu.dtb.read_hits                            0                       # DTB read hits
system.cpu.dtb.read_misses                          0                       # DTB read misses
system.cpu.dtb.stage2_mmu.stage2_tlb.accesses            0                       # DTB accesses
system.cpu.dtb.stage2_mmu.stage2_tlb.align_faults            0                       # Number of TLB faults due to alignment restrictions
system.cpu.dtb.stage2_mmu.stage2_tlb.domain_faults            0                       # Number of TLB faults due to domain restrictions
system.cpu.dtb.stage2_mmu.stage2_tlb.flush_entries            0                       # Number of entries that have been flushed from TLB
system.cpu.dtb.stage2_mmu.stage2_tlb.flush_tlb            0                       # Number of times complete TLB was flushed
system.cpu.dtb.stage2_mmu.stage2_tlb.flush_tlb_asid            0                       # Number of times TLB was flushed by ASID
system.cpu.dtb.stage2_mmu.stage2_tlb.flush_tlb_mva            0                       # Number of times TLB was flushed by MVA
system.cpu.dtb.stage2_mmu.stage2_tlb.flush_tlb_mva_asid            0                       # Number of times TLB was flushed by MVA & ASID
system.cpu.dtb.stage2_mmu.stage2_tlb.hits            0                       # DTB hits
system.cpu.dtb.stage2_mmu.stage2_tlb.inst_accesses            0                       # ITB inst accesses
system.cpu.dtb.stage2_mmu.stage2_tlb.inst_hits            0                       # ITB inst hits
system.cpu.dtb.stage2_mmu.stage2_tlb.inst_misses            0                       # ITB inst misses
system.cpu.dtb.stage2_mmu.stage2_tlb.misses            0                       # DTB misses
system.cpu.dtb.stage2_mmu.stage2_tlb.perms_faults            0                       # Number of TLB faults due to permissions restrictions
system.cpu.dtb.stage2_mmu.stage2_tlb.prefetch_faults            0                       # Number of TLB faults due to prefetch
system.cpu.dtb.stage2_mmu.stage2_tlb.read_accesses            0                       # DTB read accesses
system.cpu.dtb.stage2_mmu.stage2_tlb.read_hits            0                       # DTB read hits
system.cpu.dtb.stage2_mmu.stage2_tlb.read_misses            0                       # DTB read misses
system.cpu.dtb.stage2_mmu.stage2_tlb.walker.walkRequestOrigin_Requested::Data            0                       # Table walker requests started/completed, data/inst
system.cpu.dtb.stage2_mmu.stage2_tlb.walker.walkRequestOrigin_Requested::Inst            0                       # Table walker requests started/completed, data/inst
system.cpu.dtb.stage2_mmu.stage2_tlb.walker.walkRequestOrigin_Requested::total            0                       # Table walker requests started/completed, data/inst
system.cpu.dtb.stage2_mmu.stage2_tlb.walker.walkRequestOrigin_Completed::Data            0                       # Table walker requests started/completed, data/inst
system.cpu.dtb.stage2_mmu.stage2_tlb.walker.walkRequestOrigin_Completed::Inst            0                       # Table walker requests started/completed, data/inst
system.cpu.dtb.stage2_mmu.stage2_tlb.walker.walkRequestOrigin_Completed::total            0                       # Table walker requests started/completed, data/inst
system.cpu.dtb.stage2_mmu.stage2_tlb.walker.walkRequestOrigin::total            0                       # Table walker requests started/completed, data/inst
system.cpu.dtb.stage2_mmu.stage2_tlb.walker.walks            0                       # Table walker walks requested
system.cpu.dtb.stage2_mmu.stage2_tlb.write_accesses            0                       # DTB write accesses
system.cpu.dtb.stage2_mmu.stage2_tlb.write_hits            0                       # DTB write hits
system.cpu.dtb.stage2_mmu.stage2_tlb.write_misses            0                       # DTB write misses
system.cpu.dtb.walker.walkRequestOrigin_Requested::Data            0                       # Table walker requests started/completed, data/inst
system.cpu.dtb.walker.walkRequestOrigin_Requested::Inst            0                       # Table walker requests started/completed, data/inst
system.cpu.dtb.walker.walkRequestOrigin_Requested::total            0                       # Table walker requests started/completed, data/inst
system.cpu.dtb.walker.walkRequestOrigin_Completed::Data            0                       # Table walker requests started/completed, data/inst
system.cpu.dtb.walker.walkRequestOrigin_Completed::Inst            0                       # Table walker requests started/completed, data/inst
system.cpu.dtb.walker.walkRequestOrigin_Completed::total            0                       # Table walker requests started/completed, data/inst
system.cpu.dtb.walker.walkRequestOrigin::total            0                       # Table walker requests started/completed, data/inst
system.cpu.dtb.walker.walks                         0                       # Table walker walks requested
system.cpu.dtb.write_accesses                       0                       # DTB write accesses
system.cpu.dtb.write_hits                           0                       # DTB write hits
system.cpu.dtb.write_misses                         0                       # DTB write misses
system.cpu.fetch2.amo_instructions                  0                       # Number of memory atomic instructions successfully decoded
system.cpu.fetch2.fp_instructions                   0                       # Number of floating point instructions successfully decoded
system.cpu.fetch2.int_instructions             599985                       # Number of integer instructions successfully decoded
system.cpu.fetch2.load_instructions            183627                       # Number of memory load instructions successfully decoded
system.cpu.fetch2.store_instructions           229322                       # Number of memory store instructions successfully decoded
system.cpu.fetch2.vec_instructions                100                       # Number of SIMD instructions successfully decoded
system.cpu.idleCycles                         1961051                       # Total number of cycles that the object has spent stopped
system.cpu.ipc                               0.230843                       # IPC: instructions per cycle
system.cpu.itb.accesses                             0                       # DTB accesses
system.cpu.itb.align_faults                         0                       # Number of TLB faults due to alignment restrictions
system.cpu.itb.domain_faults                        0                       # Number of TLB faults due to domain restrictions
system.cpu.itb.flush_entries                        0                       # Number of entries that have been flushed from TLB
system.cpu.itb.flush_tlb                            0                       # Number of times complete TLB was flushed
system.cpu.itb.flush_tlb_asid                       0                       # Number of times TLB was flushed by ASID
system.cpu.itb.flush_tlb_mva                        0                       # Number of times TLB was flushed by MVA
system.cpu.itb.flush_tlb_mva_asid                   0                       # Number of times TLB was flushed by MVA & ASID
system.cpu.itb.hits                                 0                       # DTB hits
system.cpu.itb.inst_accesses                        0                       # ITB inst accesses
system.cpu.itb.inst_hits                            0                       # ITB inst hits
system.cpu.itb.inst_misses                          0                       # ITB inst misses
system.cpu.itb.misses                               0                       # DTB misses
system.cpu.itb.perms_faults                         0                       # Number of TLB faults due to permissions restrictions
system.cpu.itb.prefetch_faults                      0                       # Number of TLB faults due to prefetch
system.cpu.itb.read_accesses                        0                       # DTB read accesses
system.cpu.itb.read_hits                            0                       # DTB read hits
system.cpu.itb.read_misses                          0                       # DTB read misses
system.cpu.itb.stage2_mmu.stage2_tlb.accesses            0                       # DTB accesses
system.cpu.itb.stage2_mmu.stage2_tlb.align_faults            0                       # Number of TLB faults due to alignment restrictions
system.cpu.itb.stage2_mmu.stage2_tlb.domain_faults            0                       # Number of TLB faults due to domain restrictions
system.cpu.itb.stage2_mmu.stage2_tlb.flush_entries            0                       # Number of entries that have been flushed from TLB
system.cpu.itb.stage2_mmu.stage2_tlb.flush_tlb            0                       # Number of times complete TLB was flushed
system.cpu.itb.stage2_mmu.stage2_tlb.flush_tlb_asid            0                       # Number of times TLB was flushed by ASID
system.cpu.itb.stage2_mmu.stage2_tlb.flush_tlb_mva            0                       # Number of times TLB was flushed by MVA
system.cpu.itb.stage2_mmu.stage2_tlb.flush_tlb_mva_asid            0                       # Number of times TLB was flushed by MVA & ASID
system.cpu.itb.stage2_mmu.stage2_tlb.hits            0                       # DTB hits
system.cpu.itb.stage2_mmu.stage2_tlb.inst_accesses            0                       # ITB inst accesses
system.cpu.itb.stage2_mmu.stage2_tlb.inst_hits            0                       # ITB inst hits
system.cpu.itb.stage2_mmu.stage2_tlb.inst_misses            0                       # ITB inst misses
system.cpu.itb.stage2_mmu.stage2_tlb.misses            0                       # DTB misses
system.cpu.itb.stage2_mmu.stage2_tlb.perms_faults            0                       # Number of TLB faults due to permissions restrictions
system.cpu.itb.stage2_mmu.stage2_tlb.prefetch_faults            0                       # Number of TLB faults due to prefetch
system.cpu.itb.stage2_mmu.stage2_tlb.read_accesses            0                       # DTB read accesses
system.cpu.itb.stage2_mmu.stage2_tlb.read_hits            0                       # DTB read hits
system.cpu.itb.stage2_mmu.stage2_tlb.read_misses            0                       # DTB read misses
system.cpu.itb.stage2_mmu.stage2_tlb.walker.walkRequestOrigin_Requested::Data            0                       # Table walker requests started/completed, data/inst
system.cpu.itb.stage2_mmu.stage2_tlb.walker.walkRequestOrigin_Requested::Inst            0                       # Table walker requests started/completed, data/inst
system.cpu.itb.stage2_mmu.stage2_tlb.walker.walkRequestOrigin_Requested::total            0                       # Table walker requests started/completed, data/inst
system.cpu.itb.stage2_mmu.stage2_tlb.walker.walkRequestOrigin_Completed::Data            0                       # Table walker requests started/completed, data/inst
system.cpu.itb.stage2_mmu.stage2_tlb.walker.walkRequestOrigin_Completed::Inst            0                       # Table walker requests started/completed, data/inst
system.cpu.itb.stage2_mmu.stage2_tlb.walker.walkRequestOrigin_Completed::total            0                       # Table walker requests started/completed, data/inst
system.cpu.itb.stage2_mmu.stage2_tlb.walker.walkRequestOrigin::total            0                       # Table walker requests started/completed, data/inst
system.cpu.itb.stage2_mmu.stage2_tlb.walker.walks            0                       # Table walker walks requested
system.cpu.itb.stage2_mmu.stage2_tlb.write_accesses            0                       # DTB write accesses
system.cpu.itb.stage2_mmu.stage2_tlb.write_hits            0                       # DTB write hits
system.cpu.itb.stage2_mmu.stage2_tlb.write_misses            0                       # DTB write misses
system.cpu.itb.walker.walkRequestOrigin_Requested::Data            0                       # Table walker requests started/completed, data/inst
system.cpu.itb.walker.walkRequestOrigin_Requested::Inst            0                       # Table walker requests started/completed, data/inst
system.cpu.itb.walker.walkRequestOrigin_Requested::total            0                       # Table walker requests started/completed, data/inst
system.cpu.itb.walker.walkRequestOrigin_Completed::Data            0                       # Table walker requests started/completed, data/inst
system.cpu.itb.walker.walkRequestOrigin_Completed::Inst            0                       # Table walker requests started/completed, data/inst
system.cpu.itb.walker.walkRequestOrigin_Completed::total            0                       # Table walker requests started/completed, data/inst
system.cpu.itb.walker.walkRequestOrigin::total            0                       # Table walker requests started/completed, data/inst
system.cpu.itb.walker.walks                         0                       # Table walker walks requested
system.cpu.itb.write_accesses                       0                       # DTB write accesses
system.cpu.itb.write_hits                           0                       # DTB write hits
system.cpu.itb.write_misses                         0                       # DTB write misses
system.cpu.numCycles                          4331956                       # number of cpu cycles simulated
system.cpu.numFetchSuspends                         0                       # Number of times Execute suspended instruction fetching
system.cpu.numWorkItemsCompleted                    0                       # number of work items this cpu completed
system.cpu.numWorkItemsStarted                      0                       # number of work items this cpu started
system.cpu.op_class_0::No_OpClass                   5      0.00%      0.00% # Class of committed instruction
system.cpu.op_class_0::IntAlu                  624544     62.02%     62.02% # Class of committed instruction
system.cpu.op_class_0::IntMult                    633      0.06%     62.09% # Class of committed instruction
system.cpu.op_class_0::IntDiv                       2      0.00%     62.09% # Class of committed instruction
system.cpu.op_class_0::FloatAdd                     0      0.00%     62.09% # Class of committed instruction
system.cpu.op_class_0::FloatCmp                     0      0.00%     62.09% # Class of committed instruction
system.cpu.op_class_0::FloatCvt                     0      0.00%     62.09% # Class of committed instruction
system.cpu.op_class_0::FloatMult                    0      0.00%     62.09% # Class of committed instruction
system.cpu.op_class_0::FloatMultAcc                 0      0.00%     62.09% # Class of committed instruction
system.cpu.op_class_0::FloatDiv                     0      0.00%     62.09% # Class of committed instruction
system.cpu.op_class_0::FloatMisc                    1      0.00%     62.09% # Class of committed instruction
system.cpu.op_class_0::FloatSqrt                    0      0.00%     62.09% # Class of committed instruction
system.cpu.op_class_0::SimdAdd                     20      0.00%     62.09% # Class of committed instruction
system.cpu.op_class_0::SimdAddAcc                   0      0.00%     62.09% # Class of committed instruction
system.cpu.op_class_0::SimdAlu                     19      0.00%     62.09% # Class of committed instruction
system.cpu.op_class_0::SimdCmp                     20      0.00%     62.09% # Class of committed instruction
system.cpu.op_class_0::SimdCvt                      0      0.00%     62.09% # Class of committed instruction
system.cpu.op_class_0::SimdMisc                    23      0.00%     62.10% # Class of committed instruction
system.cpu.op_class_0::SimdMult                     0      0.00%     62.10% # Class of committed instruction
system.cpu.op_class_0::SimdMultAcc                  0      0.00%     62.10% # Class of committed instruction
system.cpu.op_class_0::SimdShift                    0      0.00%     62.10% # Class of committed instruction
system.cpu.op_class_0::SimdShiftAcc                 0      0.00%     62.10% # Class of committed instruction
system.cpu.op_class_0::SimdDiv                      0      0.00%     62.10% # Class of committed instruction
system.cpu.op_class_0::SimdSqrt                     0      0.00%     62.10% # Class of committed instruction
system.cpu.op_class_0::SimdFloatAdd                 0      0.00%     62.10% # Class of committed instruction
system.cpu.op_class_0::SimdFloatAlu                 0      0.00%     62.10% # Class of committed instruction
system.cpu.op_class_0::SimdFloatCmp                 0      0.00%     62.10% # Class of committed instruction
system.cpu.op_class_0::SimdFloatCvt                 0      0.00%     62.10% # Class of committed instruction
system.cpu.op_class_0::SimdFloatDiv                 0      0.00%     62.10% # Class of committed instruction
system.cpu.op_class_0::SimdFloatMisc                0      0.00%     62.10% # Class of committed instruction
system.cpu.op_class_0::SimdFloatMult                0      0.00%     62.10% # Class of committed instruction
system.cpu.op_class_0::SimdFloatMultAcc             0      0.00%     62.10% # Class of committed instruction
system.cpu.op_class_0::SimdFloatSqrt                0      0.00%     62.10% # Class of committed instruction
system.cpu.op_class_0::SimdReduceAdd                0      0.00%     62.10% # Class of committed instruction
system.cpu.op_class_0::SimdReduceAlu                0      0.00%     62.10% # Class of committed instruction
system.cpu.op_class_0::SimdReduceCmp                0      0.00%     62.10% # Class of committed instruction
system.cpu.op_class_0::SimdFloatReduceAdd            0      0.00%     62.10% # Class of committed instruction
system.cpu.op_class_0::SimdFloatReduceCmp            0      0.00%     62.10% # Class of committed instruction
system.cpu.op_class_0::SimdAes                      0      0.00%     62.10% # Class of committed instruction
system.cpu.op_class_0::SimdAesMix                   0      0.00%     62.10% # Class of committed instruction
system.cpu.op_class_0::SimdSha1Hash                 0      0.00%     62.10% # Class of committed instruction
system.cpu.op_class_0::SimdSha1Hash2                0      0.00%     62.10% # Class of committed instruction
system.cpu.op_class_0::SimdSha256Hash               0      0.00%     62.10% # Class of committed instruction
system.cpu.op_class_0::SimdSha256Hash2              0      0.00%     62.10% # Class of committed instruction
system.cpu.op_class_0::SimdShaSigma2                0      0.00%     62.10% # Class of committed instruction
system.cpu.op_class_0::SimdShaSigma3                0      0.00%     62.10% # Class of committed instruction
system.cpu.op_class_0::SimdPredAlu                  0      0.00%     62.10% # Class of committed instruction
system.cpu.op_class_0::MemRead                 161698     16.06%     78.15% # Class of committed instruction
system.cpu.op_class_0::MemWrite                219986     21.85%    100.00% # Class of committed instruction
system.cpu.op_class_0::FloatMemRead                 0      0.00%    100.00% # Class of committed instruction
system.cpu.op_class_0::FloatMemWrite                0      0.00%    100.00% # Class of committed instruction
system.cpu.op_class_0::IprAccess                    0      0.00%    100.00% # Class of committed instruction
system.cpu.op_class_0::InstPrefetch                 0      0.00%    100.00% # Class of committed instruction
system.cpu.op_class_0::total                  1006951                       # Class of committed instruction
system.cpu.tickCycles                         2370905                       # Number of cycles that the object actually ticked
system.cpu.workload.numSyscalls                    10                       # Number of system calls
system.membus.snoop_filter.hit_multi_requests            0                       # Number of requests hitting in the snoop filter with multiple (>1) holders of the requested data.
system.membus.snoop_filter.hit_multi_snoops            0                       # Number of snoops hitting in the snoop filter with multiple (>1) holders of the requested data.
system.membus.snoop_filter.hit_single_requests        64823                       # Number of requests hitting in the snoop filter with a single holder of the requested data.
system.membus.snoop_filter.hit_single_snoops            0                       # Number of snoops hitting in the snoop filter with a single holder of the requested data.
system.membus.snoop_filter.tot_requests        163695                       # Total number of requests made to the snoop filter.
system.membus.snoop_filter.tot_snoops               0                       # Total number of snoops made to the snoop filter.
system.tol2bus.snoop_filter.hit_multi_requests            1                       # Number of requests hitting in the snoop filter with multiple (>1) holders of the requested data.
system.tol2bus.snoop_filter.hit_multi_snoops            0                       # Number of snoops hitting in the snoop filter with multiple (>1) holders of the requested data.
system.tol2bus.snoop_filter.hit_single_requests        97685                       # Number of requests hitting in the snoop filter with a single holder of the requested data.
system.tol2bus.snoop_filter.hit_single_snoops          254                       # Number of snoops hitting in the snoop filter with a single holder of the requested data.
system.tol2bus.snoop_filter.tot_requests       196649                       # Total number of requests made to the snoop filter.
system.tol2bus.snoop_filter.tot_snoops            254                       # Total number of snoops made to the snoop filter.
system.membus.trans_dist::ReadResp                590                       # Transaction distribution
system.membus.trans_dist::WritebackDirty        64507                       # Transaction distribution
system.membus.trans_dist::CleanEvict              316                       # Transaction distribution
system.membus.trans_dist::ReadExReq              2721                       # Transaction distribution
system.membus.trans_dist::ReadExResp             2721                       # Transaction distribution
system.membus.trans_dist::ReadSharedReq           590                       # Transaction distribution
system.membus.trans_dist::InvalidateReq         95561                       # Transaction distribution
system.membus.pkt_count_system.l2.mem_side::system.mem_ctrls.port       167006                       # Packet count per connected master and slave (bytes)
system.membus.pkt_count::total                 167006                       # Packet count per connected master and slave (bytes)
system.membus.pkt_size_system.l2.mem_side::system.mem_ctrls.port      4340352                       # Cumulative packet size per connected master and slave (bytes)
system.membus.pkt_size::total                 4340352                       # Cumulative packet size per connected master and slave (bytes)
system.membus.snoops                                0                       # Total snoops (count)
system.membus.snoopTraffic                          0                       # Total snoop traffic (bytes)
system.membus.snoop_fanout::samples             98872                       # Request fanout histogram
system.membus.snoop_fanout::mean                    0                       # Request fanout histogram
system.membus.snoop_fanout::stdev                   0                       # Request fanout histogram
system.membus.snoop_fanout::underflows              0      0.00%      0.00% # Request fanout histogram
system.membus.snoop_fanout::0                   98872    100.00%    100.00% # Request fanout histogram
system.membus.snoop_fanout::1                       0      0.00%    100.00% # Request fanout histogram
system.membus.snoop_fanout::overflows               0      0.00%    100.00% # Request fanout histogram
system.membus.snoop_fanout::min_value               0                       # Request fanout histogram
system.membus.snoop_fanout::max_value               0                       # Request fanout histogram
system.membus.snoop_fanout::total               98872                       # Request fanout histogram
system.membus.reqLayer0.occupancy           462335500                       # Layer occupancy (ticks)
system.membus.reqLayer0.utilization              21.3                       # Layer utilization (%)
system.membus.respLayer1.occupancy           17640000                       # Layer occupancy (ticks)
system.membus.respLayer1.utilization              0.8                       # Layer utilization (%)
system.membus.power_state.pwrStateResidencyTicks::UNDEFINED   2165978000                       # Cumulative time (in ticks) in various power states
system.tol2bus.trans_dist::ReadResp               663                       # Transaction distribution
system.tol2bus.trans_dist::WritebackDirty       161818                       # Transaction distribution
system.tol2bus.trans_dist::WritebackClean          274                       # Transaction distribution
system.tol2bus.trans_dist::CleanEvict             672                       # Transaction distribution
system.tol2bus.trans_dist::ReadExReq             2739                       # Transaction distribution
system.tol2bus.trans_dist::ReadExResp            2739                       # Transaction distribution
system.tol2bus.trans_dist::ReadCleanReq           528                       # Transaction distribution
system.tol2bus.trans_dist::ReadSharedReq          135                       # Transaction distribution
system.tol2bus.trans_dist::InvalidateReq        95562                       # Transaction distribution
system.tol2bus.trans_dist::InvalidateResp        95561                       # Transaction distribution
system.tol2bus.pkt_count_system.cpu.icache.mem_side::system.l2.cpu_side         1330                       # Packet count per connected master and slave (bytes)
system.tol2bus.pkt_count_system.cpu.dcache.mem_side::system.l2.cpu_side       294282                       # Packet count per connected master and slave (bytes)
system.tol2bus.pkt_count::total                295612                       # Packet count per connected master and slave (bytes)
system.tol2bus.pkt_size_system.cpu.icache.mem_side::system.l2.cpu_side        51328                       # Cumulative packet size per connected master and slave (bytes)
system.tol2bus.pkt_size_system.cpu.dcache.mem_side::system.l2.cpu_side      6411712                       # Cumulative packet size per connected master and slave (bytes)
system.tol2bus.pkt_size::total                6463040                       # Cumulative packet size per connected master and slave (bytes)
system.tol2bus.snoops                           65079                       # Total snoops (count)
system.tol2bus.snoopTraffic                   4128576                       # Total snoop traffic (bytes)
system.tol2bus.snoop_fanout::samples           164043                       # Request fanout histogram
system.tol2bus.snoop_fanout::mean            0.001554                       # Request fanout histogram
system.tol2bus.snoop_fanout::stdev           0.039396                       # Request fanout histogram
system.tol2bus.snoop_fanout::underflows             0      0.00%      0.00% # Request fanout histogram
system.tol2bus.snoop_fanout::0                 163788     99.84%     99.84% # Request fanout histogram
system.tol2bus.snoop_fanout::1                    255      0.16%    100.00% # Request fanout histogram
system.tol2bus.snoop_fanout::2                      0      0.00%    100.00% # Request fanout histogram
system.tol2bus.snoop_fanout::overflows              0      0.00%    100.00% # Request fanout histogram
system.tol2bus.snoop_fanout::min_value              0                       # Request fanout histogram
system.tol2bus.snoop_fanout::max_value              1                       # Request fanout histogram
system.tol2bus.snoop_fanout::total             164043                       # Request fanout histogram
system.tol2bus.reqLayer0.occupancy          195907500                       # Layer occupancy (ticks)
system.tol2bus.reqLayer0.utilization              9.0                       # Layer utilization (%)
system.tol2bus.respLayer1.occupancy          52091500                       # Layer occupancy (ticks)
system.tol2bus.respLayer1.utilization             2.4                       # Layer utilization (%)
system.tol2bus.respLayer0.occupancy            792000                       # Layer occupancy (ticks)
system.tol2bus.respLayer0.utilization             0.0                       # Layer utilization (%)
system.tol2bus.power_state.pwrStateResidencyTicks::UNDEFINED   2165978000                       # Cumulative time (in ticks) in various power states
system.voltage_domain.voltage                       1                       # Voltage in Volts
system.clk_domain.clock                          1000                       # Clock period in ticks
system.l2.demand_hits::.cpu.inst                   57                       # number of demand (read+write) hits
system.l2.demand_hits::.cpu.data                   34                       # number of demand (read+write) hits
system.l2.demand_hits::total                       91                       # number of demand (read+write) hits
system.l2.overall_hits::.cpu.inst                  57                       # number of overall hits
system.l2.overall_hits::.cpu.data                  34                       # number of overall hits
system.l2.overall_hits::total                      91                       # number of overall hits
system.l2.demand_misses::.cpu.inst                471                       # number of demand (read+write) misses
system.l2.demand_misses::.cpu.data               2840                       # number of demand (read+write) misses
system.l2.demand_misses::total                   3311                       # number of demand (read+write) misses
system.l2.overall_misses::.cpu.inst               471                       # number of overall misses
system.l2.overall_misses::.cpu.data              2840                       # number of overall misses
system.l2.overall_misses::total                  3311                       # number of overall misses
system.l2.demand_miss_latency::.cpu.inst     36213000                       # number of demand (read+write) miss cycles
system.l2.demand_miss_latency::.cpu.data    232360500                       # number of demand (read+write) miss cycles
system.l2.demand_miss_latency::total        268573500                       # number of demand (read+write) miss cycles
system.l2.overall_miss_latency::.cpu.inst     36213000                       # number of overall miss cycles
system.l2.overall_miss_latency::.cpu.data    232360500                       # number of overall miss cycles
system.l2.overall_miss_latency::total       268573500                       # number of overall miss cycles
system.l2.demand_accesses::.cpu.inst              528                       # number of demand (read+write) accesses
system.l2.demand_accesses::.cpu.data             2874                       # number of demand (read+write) accesses
system.l2.demand_accesses::total                 3402                       # number of demand (read+write) accesses
system.l2.overall_accesses::.cpu.inst             528                       # number of overall (read+write) accesses
system.l2.overall_accesses::.cpu.data            2874                       # number of overall (read+write) accesses
system.l2.overall_accesses::total                3402                       # number of overall (read+write) accesses
system.l2.demand_miss_rate::.cpu.inst        0.892045                       # miss rate for demand accesses
system.l2.demand_miss_rate::.cpu.data        0.988170                       # miss rate for demand accesses
system.l2.demand_miss_rate::total            0.973251                       # miss rate for demand accesses
system.l2.overall_miss_rate::.cpu.inst       0.892045                       # miss rate for overall accesses
system.l2.overall_miss_rate::.cpu.data       0.988170                       # miss rate for overall accesses
system.l2.overall_miss_rate::total           0.973251                       # miss rate for overall accesses
system.l2.demand_avg_miss_latency::.cpu.inst 76885.350318                       # average overall miss latency
system.l2.demand_avg_miss_latency::.cpu.data 81817.077465                       # average overall miss latency
system.l2.demand_avg_miss_latency::total 81115.524011                       # average overall miss latency
system.l2.overall_avg_miss_latency::.cpu.inst 76885.350318                       # average overall miss latency
system.l2.overall_avg_miss_latency::.cpu.data 81817.077465                       # average overall miss latency
system.l2.overall_avg_miss_latency::total 81115.524011                       # average overall miss latency
system.l2.blocked_cycles::no_mshrs                  0                       # number of cycles access was blocked
system.l2.blocked_cycles::no_targets                0                       # number of cycles access was blocked
system.l2.blocked::no_mshrs                         0                       # number of cycles access was blocked
system.l2.blocked::no_targets                       0                       # number of cycles access was blocked
system.l2.avg_blocked_cycles::no_mshrs            nan                       # average number of cycles each access was blocked
system.l2.avg_blocked_cycles::no_targets          nan                       # average number of cycles each access was blocked
system.l2.writebacks::.writebacks               64509                       # number of writebacks
system.l2.writebacks::total                     64509                       # number of writebacks
system.l2.demand_mshr_misses::.cpu.inst           471                       # number of demand (read+write) MSHR misses
system.l2.demand_mshr_misses::.cpu.data          2840                       # number of demand (read+write) MSHR misses
system.l2.demand_mshr_misses::total              3311                       # number of demand (read+write) MSHR misses
system.l2.overall_mshr_misses::.cpu.inst          471                       # number of overall MSHR misses
system.l2.overall_mshr_misses::.cpu.data         2840                       # number of overall MSHR misses
system.l2.overall_mshr_misses::total             3311                       # number of overall MSHR misses
system.l2.demand_mshr_miss_latency::.cpu.inst     31503000                       # number of demand (read+write) MSHR miss cycles
system.l2.demand_mshr_miss_latency::.cpu.data    203960500                       # number of demand (read+write) MSHR miss cycles
system.l2.demand_mshr_miss_latency::total    235463500                       # number of demand (read+write) MSHR miss cycles
system.l2.overall_mshr_miss_latency::.cpu.inst     31503000                       # number of overall MSHR miss cycles
system.l2.overall_mshr_miss_latency::.cpu.data    203960500                       # number of overall MSHR miss cycles
system.l2.overall_mshr_miss_latency::total    235463500                       # number of overall MSHR miss cycles
system.l2.demand_mshr_miss_rate::.cpu.inst     0.892045                       # mshr miss rate for demand accesses
system.l2.demand_mshr_miss_rate::.cpu.data     0.988170                       # mshr miss rate for demand accesses
system.l2.demand_mshr_miss_rate::total       0.973251                       # mshr miss rate for demand accesses
system.l2.overall_mshr_miss_rate::.cpu.inst     0.892045                       # mshr miss rate for overall accesses
system.l2.overall_mshr_miss_rate::.cpu.data     0.988170                       # mshr miss rate for overall accesses
system.l2.overall_mshr_miss_rate::total      0.973251                       # mshr miss rate for overall accesses
system.l2.demand_avg_mshr_miss_latency::.cpu.inst 66885.350318                       # average overall mshr miss latency
system.l2.demand_avg_mshr_miss_latency::.cpu.data 71817.077465                       # average overall mshr miss latency
system.l2.demand_avg_mshr_miss_latency::total 71115.524011                       # average overall mshr miss latency
system.l2.overall_avg_mshr_miss_latency::.cpu.inst 66885.350318                       # average overall mshr miss latency
system.l2.overall_avg_mshr_miss_latency::.cpu.data 71817.077465                       # average overall mshr miss latency
system.l2.overall_avg_mshr_miss_latency::total 71115.524011                       # average overall mshr miss latency
system.l2.replacements                          65079                       # number of replacements
system.l2.WritebackDirty_hits::.writebacks        97309                       # number of WritebackDirty hits
system.l2.WritebackDirty_hits::total            97309                       # number of WritebackDirty hits
system.l2.WritebackDirty_accesses::.writebacks        97309                       # number of WritebackDirty accesses(hits+misses)
system.l2.WritebackDirty_accesses::total        97309                       # number of WritebackDirty accesses(hits+misses)
system.l2.WritebackClean_hits::.writebacks          274                       # number of WritebackClean hits
system.l2.WritebackClean_hits::total              274                       # number of WritebackClean hits
system.l2.WritebackClean_accesses::.writebacks          274                       # number of WritebackClean accesses(hits+misses)
system.l2.WritebackClean_accesses::total          274                       # number of WritebackClean accesses(hits+misses)
system.l2.ReadExReq_hits::.cpu.data                18                       # number of ReadExReq hits
system.l2.ReadExReq_hits::total                    18                       # number of ReadExReq hits
system.l2.ReadExReq_misses::.cpu.data            2721                       # number of ReadExReq misses
system.l2.ReadExReq_misses::total                2721                       # number of ReadExReq misses
system.l2.ReadExReq_miss_latency::.cpu.data    222980000                       # number of ReadExReq miss cycles
system.l2.ReadExReq_miss_latency::total     222980000                       # number of ReadExReq miss cycles
system.l2.ReadExReq_accesses::.cpu.data          2739                       # number of ReadExReq accesses(hits+misses)
system.l2.ReadExReq_accesses::total              2739                       # number of ReadExReq accesses(hits+misses)
system.l2.ReadExReq_miss_rate::.cpu.data     0.993428                       # miss rate for ReadExReq accesses
system.l2.ReadExReq_miss_rate::total         0.993428                       # miss rate for ReadExReq accesses
system.l2.ReadExReq_avg_miss_latency::.cpu.data 81947.813304                       # average ReadExReq miss latency
system.l2.ReadExReq_avg_miss_latency::total 81947.813304                       # average ReadExReq miss latency
system.l2.ReadExReq_mshr_misses::.cpu.data         2721                       # number of ReadExReq MSHR misses
system.l2.ReadExReq_mshr_misses::total           2721                       # number of ReadExReq MSHR misses
system.l2.ReadExReq_mshr_miss_latency::.cpu.data    195770000                       # number of ReadExReq MSHR miss cycles
system.l2.ReadExReq_mshr_miss_latency::total    195770000                       # number of ReadExReq MSHR miss cycles
system.l2.ReadExReq_mshr_miss_rate::.cpu.data     0.993428                       # mshr miss rate for ReadExReq accesses
system.l2.ReadExReq_mshr_miss_rate::total     0.993428                       # mshr miss rate for ReadExReq accesses
system.l2.ReadExReq_avg_mshr_miss_latency::.cpu.data 71947.813304                       # average ReadExReq mshr miss latency
system.l2.ReadExReq_avg_mshr_miss_latency::total 71947.813304                       # average ReadExReq mshr miss latency
system.l2.ReadCleanReq_hits::.cpu.inst             57                       # number of ReadCleanReq hits
system.l2.ReadCleanReq_hits::total                 57                       # number of ReadCleanReq hits
system.l2.ReadCleanReq_misses::.cpu.inst          471                       # number of ReadCleanReq misses
system.l2.ReadCleanReq_misses::total              471                       # number of ReadCleanReq misses
system.l2.ReadCleanReq_miss_latency::.cpu.inst     36213000                       # number of ReadCleanReq miss cycles
system.l2.ReadCleanReq_miss_latency::total     36213000                       # number of ReadCleanReq miss cycles
system.l2.ReadCleanReq_accesses::.cpu.inst          528                       # number of ReadCleanReq accesses(hits+misses)
system.l2.ReadCleanReq_accesses::total            528                       # number of ReadCleanReq accesses(hits+misses)
system.l2.ReadCleanReq_miss_rate::.cpu.inst     0.892045                       # miss rate for ReadCleanReq accesses
system.l2.ReadCleanReq_miss_rate::total      0.892045                       # miss rate for ReadCleanReq accesses
system.l2.ReadCleanReq_avg_miss_latency::.cpu.inst 76885.350318                       # average ReadCleanReq miss latency
system.l2.ReadCleanReq_avg_miss_latency::total 76885.350318                       # average ReadCleanReq miss latency
system.l2.ReadCleanReq_mshr_misses::.cpu.inst          471                       # number of ReadCleanReq MSHR misses
system.l2.ReadCleanReq_mshr_misses::total          471                       # number of ReadCleanReq MSHR misses
system.l2.ReadCleanReq_mshr_miss_latency::.cpu.inst     31503000                       # number of ReadCleanReq MSHR miss cycles
system.l2.ReadCleanReq_mshr_miss_latency::total     31503000                       # number of ReadCleanReq MSHR miss cycles
system.l2.ReadCleanReq_mshr_miss_rate::.cpu.inst     0.892045                       # mshr miss rate for ReadCleanReq accesses
system.l2.ReadCleanReq_mshr_miss_rate::total     0.892045                       # mshr miss rate for ReadCleanReq accesses
system.l2.ReadCleanReq_avg_mshr_miss_latency::.cpu.inst 66885.350318                       # average ReadCleanReq mshr miss latency
system.l2.ReadCleanReq_avg_mshr_miss_latency::total 66885.350318                       # average ReadCleanReq mshr miss latency
system.l2.ReadSharedReq_hits::.cpu.data            16                       # number of ReadSharedReq hits
system.l2.ReadSharedReq_hits::total                16                       # number of ReadSharedReq hits
system.l2.ReadSharedReq_misses::.cpu.data          119                       # number of ReadSharedReq misses
system.l2.ReadSharedReq_misses::total             119                       # number of ReadSharedReq misses
system.l2.ReadSharedReq_miss_latency::.cpu.data      9380500                       # number of ReadSharedReq miss cycles
system.l2.ReadSharedReq_miss_latency::total      9380500                       # number of ReadSharedReq miss cycles
system.l2.ReadSharedReq_accesses::.cpu.data          135                       # number of ReadSharedReq accesses(hits+misses)
system.l2.ReadSharedReq_accesses::total           135                       # number of ReadSharedReq accesses(hits+misses)
system.l2.ReadSharedReq_miss_rate::.cpu.data     0.881481                       # miss rate for ReadSharedReq accesses
system.l2.ReadSharedReq_miss_rate::total     0.881481                       # miss rate for ReadSharedReq accesses
system.l2.ReadSharedReq_avg_miss_latency::.cpu.data 78827.731092                       # average ReadSharedReq miss latency
system.l2.ReadSharedReq_avg_miss_latency::total 78827.731092                       # average ReadSharedReq miss latency
system.l2.ReadSharedReq_mshr_misses::.cpu.data          119                       # number of ReadSharedReq MSHR misses
system.l2.ReadSharedReq_mshr_misses::total          119                       # number of ReadSharedReq MSHR misses
system.l2.ReadSharedReq_mshr_miss_latency::.cpu.data      8190500                       # number of ReadSharedReq MSHR miss cycles
system.l2.ReadSharedReq_mshr_miss_latency::total      8190500                       # number of ReadSharedReq MSHR miss cycles
system.l2.ReadSharedReq_mshr_miss_rate::.cpu.data     0.881481                       # mshr miss rate for ReadSharedReq accesses
system.l2.ReadSharedReq_mshr_miss_rate::total     0.881481                       # mshr miss rate for ReadSharedReq accesses
system.l2.ReadSharedReq_avg_mshr_miss_latency::.cpu.data 68827.731092                       # average ReadSharedReq mshr miss latency
system.l2.ReadSharedReq_avg_mshr_miss_latency::total 68827.731092                       # average ReadSharedReq mshr miss latency
system.l2.InvalidateReq_hits::.cpu.data             1                       # number of InvalidateReq hits
system.l2.InvalidateReq_hits::total                 1                       # number of InvalidateReq hits
system.l2.InvalidateReq_misses::.cpu.data        95561                       # number of InvalidateReq misses
system.l2.InvalidateReq_misses::total           95561                       # number of InvalidateReq misses
system.l2.InvalidateReq_accesses::.cpu.data        95562                       # number of InvalidateReq accesses(hits+misses)
system.l2.InvalidateReq_accesses::total         95562                       # number of InvalidateReq accesses(hits+misses)
system.l2.InvalidateReq_miss_rate::.cpu.data     0.999990                       # miss rate for InvalidateReq accesses
system.l2.InvalidateReq_miss_rate::total     0.999990                       # miss rate for InvalidateReq accesses
system.l2.InvalidateReq_mshr_misses::.cpu.data        95561                       # number of InvalidateReq MSHR misses
system.l2.InvalidateReq_mshr_misses::total        95561                       # number of InvalidateReq MSHR misses
system.l2.InvalidateReq_mshr_miss_latency::.cpu.data   1815644500                       # number of InvalidateReq MSHR miss cycles
system.l2.InvalidateReq_mshr_miss_latency::total   1815644500                       # number of InvalidateReq MSHR miss cycles
system.l2.InvalidateReq_mshr_miss_rate::.cpu.data     0.999990                       # mshr miss rate for InvalidateReq accesses
system.l2.InvalidateReq_mshr_miss_rate::total     0.999990                       # mshr miss rate for InvalidateReq accesses
system.l2.InvalidateReq_avg_mshr_miss_latency::.cpu.data 18999.848264                       # average InvalidateReq mshr miss latency
system.l2.InvalidateReq_avg_mshr_miss_latency::total 18999.848264                       # average InvalidateReq mshr miss latency
system.l2.power_state.pwrStateResidencyTicks::UNDEFINED   2165978000                       # Cumulative time (in ticks) in various power states
system.l2.tags.tagsinuse                 20288.895370                       # Cycle average of tags in use
system.l2.tags.total_refs                      101087                       # Total number of references to valid blocks.
system.l2.tags.sampled_refs                     97848                       # Sample count of references to valid blocks.
system.l2.tags.avg_refs                      1.033102                       # Average number of references to valid blocks.
system.l2.tags.warmup_cycle                     77000                       # Cycle when the warmup percentage was hit.
system.l2.tags.occ_blocks::.writebacks   18918.765527                       # Average occupied blocks per requestor
system.l2.tags.occ_blocks::.cpu.inst       219.880916                       # Average occupied blocks per requestor
system.l2.tags.occ_blocks::.cpu.data      1150.248927                       # Average occupied blocks per requestor
system.l2.tags.occ_percent::.writebacks      0.577355                       # Average percentage of cache occupancy
system.l2.tags.occ_percent::.cpu.inst        0.006710                       # Average percentage of cache occupancy
system.l2.tags.occ_percent::.cpu.data        0.035103                       # Average percentage of cache occupancy
system.l2.tags.occ_percent::total            0.619168                       # Average percentage of cache occupancy
system.l2.tags.occ_task_id_blocks::1024         32768                       # Occupied blocks per task id
system.l2.tags.age_task_id_blocks_1024::0          626                       # Occupied blocks per task id
system.l2.tags.age_task_id_blocks_1024::1         5624                       # Occupied blocks per task id
system.l2.tags.age_task_id_blocks_1024::2        26518                       # Occupied blocks per task id
system.l2.tags.occ_task_id_percent::1024            1                       # Percentage of cache occupancy per task id
system.l2.tags.tag_accesses                   1671032                       # Number of tag accesses
system.l2.tags.data_accesses                  1671032                       # Number of data accesses
system.l2.tags.power_state.pwrStateResidencyTicks::UNDEFINED   2165978000                       # Cumulative time (in ticks) in various power states
system.cpu_voltage_domain.voltage                   1                       # Voltage in Volts
system.mem_ctrls.bytes_read::.cpu.inst          30144                       # Number of bytes read from this memory
system.mem_ctrls.bytes_read::.cpu.data         181760                       # Number of bytes read from this memory
system.mem_ctrls.bytes_read::total             211904                       # Number of bytes read from this memory
system.mem_ctrls.bytes_inst_read::.cpu.inst        30144                       # Number of instructions bytes read from this memory
system.mem_ctrls.bytes_inst_read::total         30144                       # Number of instructions bytes read from this memory
system.mem_ctrls.bytes_written::.writebacks      4128448                       # Number of bytes written to this memory
system.mem_ctrls.bytes_written::total         4128448                       # Number of bytes written to this memory
system.mem_ctrls.num_reads::.cpu.inst             471                       # Number of read requests responded to by this memory
system.mem_ctrls.num_reads::.cpu.data            2840                       # Number of read requests responded to by this memory
system.mem_ctrls.num_reads::total                3311                       # Number of read requests responded to by this memory
system.mem_ctrls.num_writes::.writebacks        64507                       # Number of write requests responded to by this memory
system.mem_ctrls.num_writes::total              64507                       # Number of write requests responded to by this memory
system.mem_ctrls.bw_read::.cpu.inst          13917039                       # Total read bandwidth from this memory (bytes/s)
system.mem_ctrls.bw_read::.cpu.data          83915903                       # Total read bandwidth from this memory (bytes/s)
system.mem_ctrls.bw_read::total              97832942                       # Total read bandwidth from this memory (bytes/s)
system.mem_ctrls.bw_inst_read::.cpu.inst     13917039                       # Instruction read bandwidth from this memory (bytes/s)
system.mem_ctrls.bw_inst_read::total         13917039                       # Instruction read bandwidth from this memory (bytes/s)
system.mem_ctrls.bw_write::.writebacks     1906043367                       # Write bandwidth from this memory (bytes/s)
system.mem_ctrls.bw_write::total           1906043367                       # Write bandwidth from this memory (bytes/s)
system.mem_ctrls.bw_total::.writebacks     1906043367                       # Total bandwidth to/from this memory (bytes/s)
system.mem_ctrls.bw_total::.cpu.inst         13917039                       # Total bandwidth to/from this memory (bytes/s)
system.mem_ctrls.bw_total::.cpu.data         83915903                       # Total bandwidth to/from this memory (bytes/s)
system.mem_ctrls.bw_total::total           2003876309                       # Total bandwidth to/from this memory (bytes/s)
system.mem_ctrls.avgPriority_.writebacks::samples     64507.00                       # Average QoS priority value for accepted requests
system.mem_ctrls.avgPriority_.cpu.inst::samples       471.00                       # Average QoS priority value for accepted requests
system.mem_ctrls.avgPriority_.cpu.data::samples      2840.00                       # Average QoS priority value for accepted requests
system.mem_ctrls.priorityMinLatency      0.000000018750                       # per QoS priority minimum request to response latency (s)
system.mem_ctrls.priorityMaxLatency      0.000148477500                       # per QoS priority maximum request to response latency (s)
system.mem_ctrls.numReadWriteTurnArounds         2193                       # Number of turnarounds from READ to WRITE
system.mem_ctrls.numWriteReadTurnArounds         2194                       # Number of turnarounds from WRITE to READ
system.mem_ctrls.numStayReadState               44917                       # Number of times bus staying in READ state
system.mem_ctrls.numStayWriteState              63775                       # Number of times bus staying in WRITE state
system.mem_ctrls.readReqs                        3311                       # Number of read requests accepted
system.mem_ctrls.writeReqs                      64507                       # Number of write requests accepted
system.mem_ctrls.readBursts                      3311                       # Number of DRAM read bursts, including those serviced by the write queue
system.mem_ctrls.writeBursts                    64507                       # Number of DRAM write bursts, including those merged in the write queue
system.mem_ctrls.servicedByWrQ                      0                       # Number of DRAM read bursts serviced by the write queue
system.mem_ctrls.mergedWrBursts                     0                       # Number of DRAM write bursts merged with an existing one
system.mem_ctrls.neitherReadNorWriteReqs            0                       # Number of requests that are neither read nor write
system.mem_ctrls.perBankRdBursts::0               279                       # Per bank write bursts
system.mem_ctrls.perBankRdBursts::1               195                       # Per bank write bursts
system.mem_ctrls.perBankRdBursts::2                60                       # Per bank write bursts
system.mem_ctrls.perBankRdBursts::3               185                       # Per bank write bursts
system.mem_ctrls.perBankRdBursts::4               228                       # Per bank write bursts
system.mem_ctrls.perBankRdBursts::5               191                       # Per bank write bursts
system.mem_ctrls.perBankRdBursts::6               187                       # Per bank write bursts
system.mem_ctrls.perBankRdBursts::7               176                       # Per bank write bursts
system.mem_ctrls.perBankRdBursts::8               212                       # Per bank write bursts
system.mem_ctrls.perBankRdBursts::9               212                       # Per bank write bursts
system.mem_ctrls.perBankRdBursts::10              223                       # Per bank write bursts
system.mem_ctrls.perBankRdBursts::11              190                       # Per bank write bursts
system.mem_ctrls.perBankRdBursts::12              189                       # Per bank write bursts
system.mem_ctrls.perBankRdBursts::13              162                       # Per bank write bursts
system.mem_ctrls.perBankRdBursts::14              313                       # Per bank write bursts
system.mem_ctrls.perBankRdBursts::15              309                       # Per bank write bursts
system.mem_ctrls.perBankWrBursts::0              4057                       # Per bank write bursts
system.mem_ctrls.perBankWrBursts::1              4030                       # Per bank write bursts
system.mem_ctrls.perBankWrBursts::2              3888                       # Per bank write bursts
system.mem_ctrls.perBankWrBursts::3              3947                       # Per bank write bursts
system.mem_ctrls.perBankWrBursts::4              4046                       # Per bank write bursts
system.mem_ctrls.perBankWrBursts::5              4088                       # Per bank write bursts
system.mem_ctrls.perBankWrBursts::6              4091                       # Per bank write bursts
system.mem_ctrls.perBankWrBursts::7              4144                       # Per bank write bursts
system.mem_ctrls.perBankWrBursts::8              4062                       # Per bank write bursts
system.mem_ctrls.perBankWrBursts::9              4028                       # Per bank write bursts
system.mem_ctrls.perBankWrBursts::10             3993                       # Per bank write bursts
system.mem_ctrls.perBankWrBursts::11             3968                       # Per bank write bursts
system.mem_ctrls.perBankWrBursts::12             3968                       # Per bank write bursts
system.mem_ctrls.perBankWrBursts::13             3974                       # Per bank write bursts
system.mem_ctrls.perBankWrBursts::14             4111                       # Per bank write bursts
system.mem_ctrls.perBankWrBursts::15             4091                       # Per bank write bursts
system.mem_ctrls.avgRdQLen                       1.20                       # Average read queue length when enqueuing
system.mem_ctrls.avgWrQLen                      12.88                       # Average write queue length when enqueuing
system.mem_ctrls.totQLat                     36968250                       # Total ticks spent queuing
system.mem_ctrls.totBusLat                   16555000                       # Total ticks spent in databus transfers
system.mem_ctrls.totMemAccLat                99049500                       # Total ticks spent from burst creation until serviced by the DRAM
system.mem_ctrls.avgQLat                     11165.28                       # Average queueing delay per DRAM burst
system.mem_ctrls.avgBusLat                    5000.00                       # Average bus latency per DRAM burst
system.mem_ctrls.avgMemAccLat                29915.28                       # Average memory access latency per DRAM burst
system.mem_ctrls.numRdRetry                         0                       # Number of times read queue was full causing retry
system.mem_ctrls.numWrRetry                         0                       # Number of times write queue was full causing retry
system.mem_ctrls.readRowHits                     2765                       # Number of row buffer hits during reads
system.mem_ctrls.writeRowHits                   60275                       # Number of row buffer hits during writes
system.mem_ctrls.readRowHitRate                 83.51                       # Row buffer hit rate for reads
system.mem_ctrls.writeRowHitRate                93.44                       # Row buffer hit rate for writes
system.mem_ctrls.readPktSize::0                     0                       # Read request sizes (log2)
system.mem_ctrls.readPktSize::1                     0                       # Read request sizes (log2)
system.mem_ctrls.readPktSize::2                     0                       # Read request sizes (log2)
system.mem_ctrls.readPktSize::3                     0                       # Read request sizes (log2)
system.mem_ctrls.readPktSize::4                     0                       # Read request sizes (log2)
system.mem_ctrls.readPktSize::5                     0                       # Read request sizes (log2)
system.mem_ctrls.readPktSize::6                  3311                       # Read request sizes (log2)
system.mem_ctrls.writePktSize::0                    0                       # Write request sizes (log2)
system.mem_ctrls.writePktSize::1                    0                       # Write request sizes (log2)
system.mem_ctrls.writePktSize::2                    0                       # Write request sizes (log2)
system.mem_ctrls.writePktSize::3                    0                       # Write request sizes (log2)
system.mem_ctrls.writePktSize::4                    0                       # Write request sizes (log2)
system.mem_ctrls.writePktSize::5                    0                       # Write request sizes (log2)
system.mem_ctrls.writePktSize::6                64507                       # Write request sizes (log2)
system.mem_ctrls.rdQLenPdf::0                    2140                       # What read queue length does an incoming req see
system.mem_ctrls.rdQLenPdf::1                    1156                       # What read queue length does an incoming req see
system.mem_ctrls.rdQLenPdf::2                      15                       # What read queue length does an incoming req see
system.mem_ctrls.rdQLenPdf::3                       0                       # What read queue length does an incoming req see
system.mem_ctrls.rdQLenPdf::4                       0                       # What read queue length does an incoming req see
system.mem_ctrls.rdQLenPdf::5                       0                       # What read queue length does an incoming req see
system.mem_ctrls.rdQLenPdf::6                       0                       # What read queue length does an incoming req see
system.mem_ctrls.rdQLenPdf::7                       0                       # What read queue length does an incoming req see
system.mem_ctrls.rdQLenPdf::8                       0                       # What read queue length does an incoming req see
system.mem_ctrls.rdQLenPdf::9                       0                       # What read queue length does an incoming req see
system.mem_ctrls.rdQLenPdf::10                      0                       # What read queue length does an incoming req see
system.mem_ctrls.rdQLenPdf::11                      0                       # What read queue length does an incoming req see
system.mem_ctrls.rdQLenPdf::12                      0                       # What read queue length does an incoming req see
system.mem_ctrls.rdQLenPdf::13                      0                       # What read queue length does an incoming req see
system.mem_ctrls.rdQLenPdf::14                      0                       # What read queue length does an incoming req see
system.mem_ctrls.rdQLenPdf::15                      0                       # What read queue length does an incoming req see
system.mem_ctrls.rdQLenPdf::16                      0                       # What read queue length does an incoming req see
system.mem_ctrls.rdQLenPdf::17                      0                       # What read queue length does an incoming req see
system.mem_ctrls.rdQLenPdf::18                      0                       # What read queue length does an incoming req see
system.mem_ctrls.rdQLenPdf::19                      0                       # What read queue length does an incoming req see
system.mem_ctrls.rdQLenPdf::20                      0                       # What read queue length does an incoming req see
system.mem_ctrls.rdQLenPdf::21                      0                       # What read queue length does an incoming req see
system.mem_ctrls.rdQLenPdf::22                      0                       # What read queue length does an incoming req see
system.mem_ctrls.rdQLenPdf::23                      0                       # What read queue length does an incoming req see
system.mem_ctrls.rdQLenPdf::24                      0                       # What read queue length does an incoming req see
system.mem_ctrls.rdQLenPdf::25                      0                       # What read queue length does an incoming req see
system.mem_ctrls.rdQLenPdf::26                      0                       # What read queue length does an incoming req see
system.mem_ctrls.rdQLenPdf::27                      0                       # What read queue length does an incoming req see
system.mem_ctrls.rdQLenPdf::28                      0                       # What read queue length does an incoming req see
system.mem_ctrls.rdQLenPdf::29                      0                       # What read queue length does an incoming req see
system.mem_ctrls.rdQLenPdf::30                      0                       # What read queue length does an incoming req see
system.mem_ctrls.rdQLenPdf::31                      0                       # What read queue length does an incoming req see
system.mem_ctrls.wrQLenPdf::0                       1                       # What write queue length does an incoming req see
system.mem_ctrls.wrQLenPdf::1                       1                       # What write queue length does an incoming req see
system.mem_ctrls.wrQLenPdf::2                       1                       # What write queue length does an incoming req see
system.mem_ctrls.wrQLenPdf::3                       1                       # What write queue length does an incoming req see
system.mem_ctrls.wrQLenPdf::4                       1                       # What write queue length does an incoming req see
system.mem_ctrls.wrQLenPdf::5                       1                       # What write queue length does an incoming req see
system.mem_ctrls.wrQLenPdf::6                       1                       # What write queue length does an incoming req see
system.mem_ctrls.wrQLenPdf::7                       1                       # What write queue length does an incoming req see
system.mem_ctrls.wrQLenPdf::8                       1                       # What write queue length does an incoming req see
system.mem_ctrls.wrQLenPdf::9                       1                       # What write queue length does an incoming req see
system.mem_ctrls.wrQLenPdf::10                      1                       # What write queue length does an incoming req see
system.mem_ctrls.wrQLenPdf::11                      1                       # What write queue length does an incoming req see
system.mem_ctrls.wrQLenPdf::12                      1                       # What write queue length does an incoming req see
system.mem_ctrls.wrQLenPdf::13                      1                       # What write queue length does an incoming req see
system.mem_ctrls.wrQLenPdf::14                      1                       # What write queue length does an incoming req see
system.mem_ctrls.wrQLenPdf::15                   2194                       # What write queue length does an incoming req see
system.mem_ctrls.wrQLenPdf::16                   2813                       # What write queue length does an incoming req see
system.mem_ctrls.wrQLenPdf::17                   3697                       # What write queue length does an incoming req see
system.mem_ctrls.wrQLenPdf::18                   4046                       # What write queue length does an incoming req see
system.mem_ctrls.wrQLenPdf::19                   3902                       # What write queue length does an incoming req see
system.mem_ctrls.wrQLenPdf::20                   5082                       # What write queue length does an incoming req see
system.mem_ctrls.wrQLenPdf::21                   4453                       # What write queue length does an incoming req see
system.mem_ctrls.wrQLenPdf::22                   4161                       # What write queue length does an incoming req see
system.mem_ctrls.wrQLenPdf::23                   3382                       # What write queue length does an incoming req see
system.mem_ctrls.wrQLenPdf::24                   4452                       # What write queue length does an incoming req see
system.mem_ctrls.wrQLenPdf::25                   2899                       # What write queue length does an incoming req see
system.mem_ctrls.wrQLenPdf::26                   3969                       # What write queue length does an incoming req see
system.mem_ctrls.wrQLenPdf::27                   3256                       # What write queue length does an incoming req see
system.mem_ctrls.wrQLenPdf::28                   3825                       # What write queue length does an incoming req see
system.mem_ctrls.wrQLenPdf::29                   2844                       # What write queue length does an incoming req see
system.mem_ctrls.wrQLenPdf::30                   3049                       # What write queue length does an incoming req see
system.mem_ctrls.wrQLenPdf::31                   2565                       # What write queue length does an incoming req see
system.mem_ctrls.wrQLenPdf::32                   2453                       # What write queue length does an incoming req see
system.mem_ctrls.wrQLenPdf::33                    218                       # What write queue length does an incoming req see
system.mem_ctrls.wrQLenPdf::34                    195                       # What write queue length does an incoming req see
system.mem_ctrls.wrQLenPdf::35                    177                       # What write queue length does an incoming req see
system.mem_ctrls.wrQLenPdf::36                    146                       # What write queue length does an incoming req see
system.mem_ctrls.wrQLenPdf::37                    125                       # What write queue length does an incoming req see
system.mem_ctrls.wrQLenPdf::38                    103                       # What write queue length does an incoming req see
system.mem_ctrls.wrQLenPdf::39                    106                       # What write queue length does an incoming req see
system.mem_ctrls.wrQLenPdf::40                     79                       # What write queue length does an incoming req see
system.mem_ctrls.wrQLenPdf::41                     82                       # What write queue length does an incoming req see
system.mem_ctrls.wrQLenPdf::42                     61                       # What write queue length does an incoming req see
system.mem_ctrls.wrQLenPdf::43                     50                       # What write queue length does an incoming req see
system.mem_ctrls.wrQLenPdf::44                     33                       # What write queue length does an incoming req see
system.mem_ctrls.wrQLenPdf::45                     29                       # What write queue length does an incoming req see
system.mem_ctrls.wrQLenPdf::46                     20                       # What write queue length does an incoming req see
system.mem_ctrls.wrQLenPdf::47                     11                       # What write queue length does an incoming req see
system.mem_ctrls.wrQLenPdf::48                      9                       # What write queue length does an incoming req see
system.mem_ctrls.wrQLenPdf::49                      3                       # What write queue length does an incoming req see
system.mem_ctrls.wrQLenPdf::50                      1                       # What write queue length does an incoming req see
system.mem_ctrls.wrQLenPdf::51                      1                       # What write queue length does an incoming req see
system.mem_ctrls.wrQLenPdf::52                      1                       # What write queue length does an incoming req see
system.mem_ctrls.wrQLenPdf::53                      0                       # What write queue length does an incoming req see
system.mem_ctrls.wrQLenPdf::54                      0                       # What write queue length does an incoming req see
system.mem_ctrls.wrQLenPdf::55                      0                       # What write queue length does an incoming req see
system.mem_ctrls.wrQLenPdf::56                      0                       # What write queue length does an incoming req see
system.mem_ctrls.wrQLenPdf::57                      0                       # What write queue length does an incoming req see
system.mem_ctrls.wrQLenPdf::58                      0                       # What write queue length does an incoming req see
system.mem_ctrls.wrQLenPdf::59                      0                       # What write queue length does an incoming req see
system.mem_ctrls.wrQLenPdf::60                      0                       # What write queue length does an incoming req see
system.mem_ctrls.wrQLenPdf::61                      0                       # What write queue length does an incoming req see
system.mem_ctrls.wrQLenPdf::62                      0                       # What write queue length does an incoming req see
system.mem_ctrls.wrQLenPdf::63                      0                       # What write queue length does an incoming req see
system.mem_ctrls.bytesPerActivate::samples         4755                       # Bytes accessed per row activation
system.mem_ctrls.bytesPerActivate::mean    912.407150                       # Bytes accessed per row activation
system.mem_ctrls.bytesPerActivate::gmean   826.192096                       # Bytes accessed per row activation
system.mem_ctrls.bytesPerActivate::stdev   261.429170                       # Bytes accessed per row activation
system.mem_ctrls.bytesPerActivate::0-127          126      2.65%      2.65% # Bytes accessed per row activation
system.mem_ctrls.bytesPerActivate::128-255           94      1.98%      4.63% # Bytes accessed per row activation
system.mem_ctrls.bytesPerActivate::256-383          156      3.28%      7.91% # Bytes accessed per row activation
system.mem_ctrls.bytesPerActivate::384-511          263      5.53%     13.44% # Bytes accessed per row activation
system.mem_ctrls.bytesPerActivate::512-639           63      1.32%     14.76% # Bytes accessed per row activation
system.mem_ctrls.bytesPerActivate::640-767           49      1.03%     15.79% # Bytes accessed per row activation
system.mem_ctrls.bytesPerActivate::768-895           35      0.74%     16.53% # Bytes accessed per row activation
system.mem_ctrls.bytesPerActivate::896-1023           52      1.09%     17.62% # Bytes accessed per row activation
system.mem_ctrls.bytesPerActivate::1024-1151         3917     82.38%    100.00% # Bytes accessed per row activation
system.mem_ctrls.bytesPerActivate::total         4755                       # Bytes accessed per row activation
system.mem_ctrls.rdPerTurnAround::samples         2194                       # Reads before turning the bus around for writes
system.mem_ctrls.rdPerTurnAround::mean       1.509116                       # Reads before turning the bus around for writes
system.mem_ctrls.rdPerTurnAround::stdev     70.687215                       # Reads before turning the bus around for writes
[...]
system.cpu.dcache.overall_miss_latency::.cpu.data   3290514500                       # number of overall miss cycles
system.cpu.dcache.overall_miss_latency::total   3290514500                       # number of overall miss cycles
system.cpu.dcache.demand_accesses::.cpu.data       388897                       # number of demand (read+write) accesses
system.cpu.dcache.demand_accesses::total       388897                       # number of demand (read+write) accesses
system.cpu.dcache.overall_accesses::.cpu.data       388905                       # number of overall (read+write) accesses
system.cpu.dcache.overall_accesses::total       388905                       # number of overall (read+write) accesses
system.cpu.dcache.demand_miss_rate::.cpu.data     0.254762                       # miss rate for demand accesses
system.cpu.dcache.demand_miss_rate::total     0.254762                       # miss rate for demand accesses
system.cpu.dcache.overall_miss_rate::.cpu.data     0.254764                       # miss rate for overall accesses
system.cpu.dcache.overall_miss_rate::total     0.254764                       # miss rate for overall accesses
system.cpu.dcache.demand_avg_miss_latency::.cpu.data 33212.024103                       # average overall miss latency
system.cpu.dcache.demand_avg_miss_latency::total 33212.024103                       # average overall miss latency
system.cpu.dcache.overall_avg_miss_latency::.cpu.data 33211.018480                       # average overall miss latency
system.cpu.dcache.overall_avg_miss_latency::total 33211.018480                       # average overall miss latency
system.cpu.dcache.blocked_cycles::no_mshrs            0                       # number of cycles access was blocked
system.cpu.dcache.blocked_cycles::no_targets            0                       # number of cycles access was blocked
system.cpu.dcache.blocked::no_mshrs                 0                       # number of cycles access was blocked
system.cpu.dcache.blocked::no_targets               0                       # number of cycles access was blocked
system.cpu.dcache.avg_blocked_cycles::no_mshrs          nan                       # average number of cycles each access was blocked
system.cpu.dcache.avg_blocked_cycles::no_targets          nan                       # average number of cycles each access was blocked
system.cpu.dcache.writebacks::.writebacks        97309                       # number of writebacks
system.cpu.dcache.writebacks::total             97309                       # number of writebacks
system.cpu.dcache.demand_mshr_hits::.cpu.data          643                       # number of demand (read+write) MSHR hits
system.cpu.dcache.demand_mshr_hits::total          643                       # number of demand (read+write) MSHR hits
system.cpu.dcache.overall_mshr_hits::.cpu.data          643                       # number of overall MSHR hits
system.cpu.dcache.overall_mshr_hits::total          643                       # number of overall MSHR hits
system.cpu.dcache.demand_mshr_misses::.cpu.data        98433                       # number of demand (read+write) MSHR misses
system.cpu.dcache.demand_mshr_misses::total        98433                       # number of demand (read+write) MSHR misses
system.cpu.dcache.overall_mshr_misses::.cpu.data        98436                       # number of overall MSHR misses
system.cpu.dcache.overall_mshr_misses::total        98436                       # number of overall MSHR misses
system.cpu.dcache.demand_mshr_miss_latency::.cpu.data   3154906500                       # number of demand (read+write) MSHR miss cycles
system.cpu.dcache.demand_mshr_miss_latency::total   3154906500                       # number of demand (read+write) MSHR miss cycles
system.cpu.dcache.overall_mshr_miss_latency::.cpu.data   3155168500                       # number of overall MSHR miss cycles
system.cpu.dcache.overall_mshr_miss_latency::total   3155168500                       # number of overall MSHR miss cycles
system.cpu.dcache.demand_mshr_miss_rate::.cpu.data     0.253108                       # mshr miss rate for demand accesses
system.cpu.dcache.demand_mshr_miss_rate::total     0.253108                       # mshr miss rate for demand accesses
system.cpu.dcache.overall_mshr_miss_rate::.cpu.data     0.253111                       # mshr miss rate for overall accesses
system.cpu.dcache.overall_mshr_miss_rate::total     0.253111                       # mshr miss rate for overall accesses
system.cpu.dcache.demand_avg_mshr_miss_latency::.cpu.data 32051.309012                       # average overall mshr miss latency
system.cpu.dcache.demand_avg_mshr_miss_latency::total 32051.309012                       # average overall mshr miss latency
system.cpu.dcache.overall_avg_mshr_miss_latency::.cpu.data 32052.993823                       # average overall mshr miss latency
system.cpu.dcache.overall_avg_mshr_miss_latency::total 32052.993823                       # average overall mshr miss latency
system.cpu.dcache.replacements                  97411                       # number of replacements
system.cpu.dcache.ReadReq_hits::.cpu.data       170296                       # number of ReadReq hits
system.cpu.dcache.ReadReq_hits::total          170296                       # number of ReadReq hits
system.cpu.dcache.ReadReq_misses::.cpu.data          138                       # number of ReadReq misses
system.cpu.dcache.ReadReq_misses::total           138                       # number of ReadReq misses
system.cpu.dcache.ReadReq_miss_latency::.cpu.data     10084500                       # number of ReadReq miss cycles
system.cpu.dcache.ReadReq_miss_latency::total     10084500                       # number of ReadReq miss cycles
system.cpu.dcache.ReadReq_accesses::.cpu.data       170434                       # number of ReadReq accesses(hits+misses)
system.cpu.dcache.ReadReq_accesses::total       170434                       # number of ReadReq accesses(hits+misses)
system.cpu.dcache.ReadReq_miss_rate::.cpu.data     0.000810                       # miss rate for ReadReq accesses
system.cpu.dcache.ReadReq_miss_rate::total     0.000810                       # miss rate for ReadReq accesses
system.cpu.dcache.ReadReq_avg_miss_latency::.cpu.data 73076.086957                       # average ReadReq miss latency
system.cpu.dcache.ReadReq_avg_miss_latency::total 73076.086957                       # average ReadReq miss latency
system.cpu.dcache.ReadReq_mshr_hits::.cpu.data            7                       # number of ReadReq MSHR hits
system.cpu.dcache.ReadReq_mshr_hits::total            7                       # number of ReadReq MSHR hits
system.cpu.dcache.ReadReq_mshr_misses::.cpu.data          131                       # number of ReadReq MSHR misses
system.cpu.dcache.ReadReq_mshr_misses::total          131                       # number of ReadReq MSHR misses
system.cpu.dcache.ReadReq_mshr_miss_latency::.cpu.data      9391500                       # number of ReadReq MSHR miss cycles
system.cpu.dcache.ReadReq_mshr_miss_latency::total      9391500                       # number of ReadReq MSHR miss cycles
system.cpu.dcache.ReadReq_mshr_miss_rate::.cpu.data     0.000769                       # mshr miss rate for ReadReq accesses
system.cpu.dcache.ReadReq_mshr_miss_rate::total     0.000769                       # mshr miss rate for ReadReq accesses
system.cpu.dcache.ReadReq_avg_mshr_miss_latency::.cpu.data 71690.839695                       # average ReadReq mshr miss latency
system.cpu.dcache.ReadReq_avg_mshr_miss_latency::total 71690.839695                       # average ReadReq mshr miss latency
system.cpu.dcache.WriteReq_hits::.cpu.data       119525                       # number of WriteReq hits
system.cpu.dcache.WriteReq_hits::total         119525                       # number of WriteReq hits
system.cpu.dcache.WriteReq_misses::.cpu.data         3375                       # number of WriteReq misses
system.cpu.dcache.WriteReq_misses::total         3375                       # number of WriteReq misses
system.cpu.dcache.WriteReq_miss_latency::.cpu.data    266634000                       # number of WriteReq miss cycles
system.cpu.dcache.WriteReq_miss_latency::total    266634000                       # number of WriteReq miss cycles
system.cpu.dcache.WriteReq_accesses::.cpu.data       122900                       # number of WriteReq accesses(hits+misses)
system.cpu.dcache.WriteReq_accesses::total       122900                       # number of WriteReq accesses(hits+misses)
system.cpu.dcache.WriteReq_miss_rate::.cpu.data     0.027461                       # miss rate for WriteReq accesses
system.cpu.dcache.WriteReq_miss_rate::total     0.027461                       # miss rate for WriteReq accesses
system.cpu.dcache.WriteReq_avg_miss_latency::.cpu.data 79002.666667                       # average WriteReq miss latency
system.cpu.dcache.WriteReq_avg_miss_latency::total 79002.666667                       # average WriteReq miss latency
system.cpu.dcache.WriteReq_mshr_hits::.cpu.data          636                       # number of WriteReq MSHR hits
system.cpu.dcache.WriteReq_mshr_hits::total          636                       # number of WriteReq MSHR hits
system.cpu.dcache.WriteReq_mshr_misses::.cpu.data         2739                       # number of WriteReq MSHR misses
system.cpu.dcache.WriteReq_mshr_misses::total         2739                       # number of WriteReq MSHR misses
system.cpu.dcache.WriteReq_mshr_miss_latency::.cpu.data    227280000                       # number of WriteReq MSHR miss cycles
system.cpu.dcache.WriteReq_mshr_miss_latency::total    227280000                       # number of WriteReq MSHR miss cycles
system.cpu.dcache.WriteReq_mshr_miss_rate::.cpu.data     0.022286                       # mshr miss rate for WriteReq accesses
system.cpu.dcache.WriteReq_mshr_miss_rate::total     0.022286                       # mshr miss rate for WriteReq accesses
system.cpu.dcache.WriteReq_avg_mshr_miss_latency::.cpu.data 82979.189485                       # average WriteReq mshr miss latency
system.cpu.dcache.WriteReq_avg_mshr_miss_latency::total 82979.189485                       # average WriteReq mshr miss latency
system.cpu.dcache.SoftPFReq_hits::.cpu.data            5                       # number of SoftPFReq hits
system.cpu.dcache.SoftPFReq_hits::total             5                       # number of SoftPFReq hits
system.cpu.dcache.SoftPFReq_misses::.cpu.data            3                       # number of SoftPFReq misses
system.cpu.dcache.SoftPFReq_misses::total            3                       # number of SoftPFReq misses
system.cpu.dcache.SoftPFReq_accesses::.cpu.data            8                       # number of SoftPFReq accesses(hits+misses)
system.cpu.dcache.SoftPFReq_accesses::total            8                       # number of SoftPFReq accesses(hits+misses)
system.cpu.dcache.SoftPFReq_miss_rate::.cpu.data     0.375000                       # miss rate for SoftPFReq accesses
system.cpu.dcache.SoftPFReq_miss_rate::total     0.375000                       # miss rate for SoftPFReq accesses
system.cpu.dcache.SoftPFReq_mshr_misses::.cpu.data            3                       # number of SoftPFReq MSHR misses
system.cpu.dcache.SoftPFReq_mshr_misses::total            3                       # number of SoftPFReq MSHR misses
system.cpu.dcache.SoftPFReq_mshr_miss_latency::.cpu.data       262000                       # number of SoftPFReq MSHR miss cycles
system.cpu.dcache.SoftPFReq_mshr_miss_latency::total       262000                       # number of SoftPFReq MSHR miss cycles
system.cpu.dcache.SoftPFReq_mshr_miss_rate::.cpu.data     0.375000                       # mshr miss rate for SoftPFReq accesses
system.cpu.dcache.SoftPFReq_mshr_miss_rate::total     0.375000                       # mshr miss rate for SoftPFReq accesses
system.cpu.dcache.SoftPFReq_avg_mshr_miss_latency::.cpu.data 87333.333333                       # average SoftPFReq mshr miss latency
system.cpu.dcache.SoftPFReq_avg_mshr_miss_latency::total 87333.333333                       # average SoftPFReq mshr miss latency
system.cpu.dcache.WriteLineReq_misses::.cpu.data        95563                       # number of WriteLineReq misses
system.cpu.dcache.WriteLineReq_misses::total        95563                       # number of WriteLineReq misses
system.cpu.dcache.WriteLineReq_miss_latency::.cpu.data   3013796000                       # number of WriteLineReq miss cycles
system.cpu.dcache.WriteLineReq_miss_latency::total   3013796000                       # number of WriteLineReq miss cycles
system.cpu.dcache.WriteLineReq_accesses::.cpu.data        95563                       # number of WriteLineReq accesses(hits+misses)
system.cpu.dcache.WriteLineReq_accesses::total        95563                       # number of WriteLineReq accesses(hits+misses)
system.cpu.dcache.WriteLineReq_miss_rate::.cpu.data            1                       # miss rate for WriteLineReq accesses
system.cpu.dcache.WriteLineReq_miss_rate::total            1                       # miss rate for WriteLineReq accesses
system.cpu.dcache.WriteLineReq_avg_miss_latency::.cpu.data 31537.268608                       # average WriteLineReq miss latency
system.cpu.dcache.WriteLineReq_avg_miss_latency::total 31537.268608                       # average WriteLineReq miss latency
system.cpu.dcache.WriteLineReq_mshr_misses::.cpu.data        95563                       # number of WriteLineReq MSHR misses
system.cpu.dcache.WriteLineReq_mshr_misses::total        95563                       # number of WriteLineReq MSHR misses
system.cpu.dcache.WriteLineReq_mshr_miss_latency::.cpu.data   2918235000                       # number of WriteLineReq MSHR miss cycles
system.cpu.dcache.WriteLineReq_mshr_miss_latency::total   2918235000                       # number of WriteLineReq MSHR miss cycles
system.cpu.dcache.WriteLineReq_mshr_miss_rate::.cpu.data            1                       # mshr miss rate for WriteLineReq accesses
system.cpu.dcache.WriteLineReq_mshr_miss_rate::total            1                       # mshr miss rate for WriteLineReq accesses
system.cpu.dcache.WriteLineReq_avg_mshr_miss_latency::.cpu.data 30537.289537                       # average WriteLineReq mshr miss latency
system.cpu.dcache.WriteLineReq_avg_mshr_miss_latency::total 30537.289537                       # average WriteLineReq mshr miss latency
system.cpu.dcache.LoadLockedReq_hits::.cpu.data           19                       # number of LoadLockedReq hits
system.cpu.dcache.LoadLockedReq_hits::total           19                       # number of LoadLockedReq hits
system.cpu.dcache.LoadLockedReq_misses::.cpu.data            1                       # number of LoadLockedReq misses
system.cpu.dcache.LoadLockedReq_misses::total            1                       # number of LoadLockedReq misses
system.cpu.dcache.LoadLockedReq_miss_latency::.cpu.data       100000                       # number of LoadLockedReq miss cycles
system.cpu.dcache.LoadLockedReq_miss_latency::total       100000                       # number of LoadLockedReq miss cycles
system.cpu.dcache.LoadLockedReq_accesses::.cpu.data           20                       # number of LoadLockedReq accesses(hits+misses)
system.cpu.dcache.LoadLockedReq_accesses::total           20                       # number of LoadLockedReq accesses(hits+misses)
system.cpu.dcache.LoadLockedReq_miss_rate::.cpu.data     0.050000                       # miss rate for LoadLockedReq accesses
system.cpu.dcache.LoadLockedReq_miss_rate::total     0.050000                       # miss rate for LoadLockedReq accesses
system.cpu.dcache.LoadLockedReq_avg_miss_latency::.cpu.data       100000                       # average LoadLockedReq miss latency
system.cpu.dcache.LoadLockedReq_avg_miss_latency::total       100000                       # average LoadLockedReq miss latency
system.cpu.dcache.LoadLockedReq_mshr_misses::.cpu.data            1                       # number of LoadLockedReq MSHR misses
system.cpu.dcache.LoadLockedReq_mshr_misses::total            1                       # number of LoadLockedReq MSHR misses
system.cpu.dcache.LoadLockedReq_mshr_miss_latency::.cpu.data        99000                       # number of LoadLockedReq MSHR miss cycles
system.cpu.dcache.LoadLockedReq_mshr_miss_latency::total        99000                       # number of LoadLockedReq MSHR miss cycles
system.cpu.dcache.LoadLockedReq_mshr_miss_rate::.cpu.data     0.050000                       # mshr miss rate for LoadLockedReq accesses
system.cpu.dcache.LoadLockedReq_mshr_miss_rate::total     0.050000                       # mshr miss rate for LoadLockedReq accesses
system.cpu.dcache.LoadLockedReq_avg_mshr_miss_latency::.cpu.data        99000                       # average LoadLockedReq mshr miss latency
system.cpu.dcache.LoadLockedReq_avg_mshr_miss_latency::total        99000                       # average LoadLockedReq mshr miss latency
system.cpu.dcache.StoreCondReq_hits::.cpu.data           20                       # number of StoreCondReq hits
system.cpu.dcache.StoreCondReq_hits::total           20                       # number of StoreCondReq hits
system.cpu.dcache.StoreCondReq_accesses::.cpu.data           20                       # number of StoreCondReq accesses(hits+misses)
system.cpu.dcache.StoreCondReq_accesses::total           20                       # number of StoreCondReq accesses(hits+misses)
system.cpu.dcache.power_state.pwrStateResidencyTicks::UNDEFINED   2165978000                       # Cumulative time (in ticks) in various power states
system.cpu.dcache.tags.tagsinuse           975.764774                       # Cycle average of tags in use
system.cpu.dcache.tags.total_refs              388300                       # Total number of references to valid blocks.
system.cpu.dcache.tags.sampled_refs             98435                       # Sample count of references to valid blocks.
system.cpu.dcache.tags.avg_refs              3.944735                       # Average number of references to valid blocks.
system.cpu.dcache.tags.warmup_cycle            269500                       # Cycle when the warmup percentage was hit.
system.cpu.dcache.tags.occ_blocks::.cpu.data   975.764774                       # Average occupied blocks per requestor
system.cpu.dcache.tags.occ_percent::.cpu.data     0.952895                       # Average percentage of cache occupancy
system.cpu.dcache.tags.occ_percent::total     0.952895                       # Average percentage of cache occupancy
system.cpu.dcache.tags.occ_task_id_blocks::1024         1024                       # Occupied blocks per task id
system.cpu.dcache.tags.age_task_id_blocks_1024::0          626                       # Occupied blocks per task id
system.cpu.dcache.tags.age_task_id_blocks_1024::1          398                       # Occupied blocks per task id
system.cpu.dcache.tags.occ_task_id_percent::1024            1                       # Percentage of cache occupancy per task id
system.cpu.dcache.tags.tag_accesses            876325                       # Number of tag accesses
system.cpu.dcache.tags.data_accesses           876325                       # Number of data accesses
system.cpu.dcache.tags.power_state.pwrStateResidencyTicks::UNDEFINED   2165978000                       # Cumulative time (in ticks) in various power states
system.cpu.power_state.pwrStateResidencyTicks::ON   2165978000                       # Cumulative time (in ticks) in various power states
system.cpu.itb.walker.power_state.pwrStateResidencyTicks::UNDEFINED   2165978000                       # Cumulative time (in ticks) in various power states
system.cpu.itb.stage2_mmu.stage2_tlb.walker.power_state.pwrStateResidencyTicks::UNDEFINED   2165978000                       # Cumulative time (in ticks) in various power states

---------- End Simulation Statistics   ----------
