
---------- Begin Simulation Statistics ----------
final_tick                                 1053692000                       # Number of ticks from beginning of simulation (restored from checkpoints and never reset)
host_inst_rate                                 228701                       # Simulator instruction rate (inst/s)
host_mem_usage                                 847304                       # Number of bytes of host memory used
host_op_rate                                   233207                       # Simulator op (including micro ops) rate (op/s)
host_seconds                                     4.37                       # Real time elapsed on the host
host_tick_rate                              240970906                       # Simulator tick rate (ticks/s)
sim_freq                                 1000000000000                       # Frequency of simulated ticks
sim_insts                                     1000000                       # Number of instructions simulated
sim_ops                                       1019738                       # Number of ops (including micro ops) simulated
sim_seconds                                  0.001054                       # Number of seconds simulated
sim_ticks                                  1053692000                       # Number of ticks simulated
system.cpu.branchPred.BTBCorrect                    0                       # Number of correct BTB predictions (this stat may not work properly.
system.cpu.branchPred.BTBHitPct             99.268731                       # BTB Hit Percentage
system.cpu.branchPred.BTBHits                  100997                       # Number of BTB hits
system.cpu.branchPred.BTBLookups               101741                       # Number of BTB lookups
system.cpu.branchPred.RASInCorrect                159                       # Number of incorrect RAS predictions.
system.cpu.branchPred.condIncorrect             44772                       # Number of conditional branches incorrect
system.cpu.branchPred.condPredicted            149022                       # Number of conditional branches predicted
system.cpu.branchPred.indirectHits                 11                       # Number of indirect target hits.
system.cpu.branchPred.indirectLookups             106                       # Number of indirect predictor lookups.
system.cpu.branchPred.indirectMisses               95                       # Number of indirect misses.
system.cpu.branchPred.lookups                  166707                       # Number of BP lookups
system.cpu.branchPred.usedRAS                     495                       # Number of times the RAS was used to get a target.
system.cpu.branchPredindirectMispredicted           61                       # Number of mispredicted indirect branches.
system.cpu.committedInsts                     1000000                       # Number of instructions committed
system.cpu.committedOps                       1019738                       # Number of ops (including micro ops) committed
system.cpu.cpi                               2.107384                       # CPI: cycles per instruction
system.cpu.discardedOps                         58340                       # Number of ops (including micro ops) which were discarded before commit
system.cpu.dtb.accesses                             0                       # DTB accesses
system.cpu.dtb.align_faults                         0                       # Number of TLB faults due to alignment restrictions
system.cpu.dtb.domain_faults                        0                       # Number of TLB faults due to domain restrictions
system.cpu.dtb.flush_entries                        0                       # Number of entries that have been flushed from TLB
system.cpu.dtb.flush_tlb                            0                       # Number of times complete TLB was flushed
system.cpu.dtb.flush_tlb_asid                       0                       # Number of times TLB was flushed by ASID
system.cpu.dtb.flush_tlb_mva                        0                       # Number of times TLB was flushed by MVA
system.cpu.dtb.flush_tlb_mva_asid                   0                       # Number of times TLB was flushed by MVA & ASID
system.cpu.dtb.hits                                 0                       # DTB hits
system.cpu.dtb.inst_accesses                        0                       # ITB inst accesses
system.cpu.dtb.inst_hits                            0                       # ITB inst hits
system.cpu.dtb.inst_misses                          0                       # ITB inst misses
system.cpu.dtb.misses                               0                       # DTB misses
system.cpu.dtb.perms_faults                         0                       # Number of TLB faults due to permissions restrictions
system.cpu.dtb.prefetch_faults                      0                       # Number of TLB faults due to prefetch
system.cpu.dtb.read_accesses                        0                       # DTB read accesses
system.cpu.dtb.read_hits                            0                       # DTB read hits
system.cpu.dtb.read_misses                          0                       # DTB read misses
system.cpu.dtb.stage2_mmu.stage2_tlb.accesses            0                       # DTB accesses
system.cpu.dtb.stage2_mmu.stage2_tlb.align_faults            0                       # Number of TLB faults due to alignment restrictions
system.cpu.dtb.stage2_mmu.stage2_tlb.domain_faults            0                       # Number of TLB faults due to domain restrictions
system.cpu.dtb.stage2_mmu.stage2_tlb.flush_entries            0                       # Number of entries that have been flushed from TLB
system.cpu.dtb.stage2_mmu.stage2_tlb.flush_tlb            0                       # Number of times complete TLB was flushed
system.cpu.dtb.stage2_mmu.stage2_tlb.flush_tlb_asid            0                       # Number of times TLB was flushed by ASID
system.cpu.dtb.stage2_mmu.stage2_tlb.flush_tlb_mva            0                       # Number of times TLB was flushed by MVA
system.cpu.dtb.stage2_mmu.stage2_tlb.flush_tlb_mva_asid            0                       # Number of times TLB was flushed by MVA & ASID
system.cpu.dtb.stage2_mmu.stage2_tlb.hits            0                       # DTB hits
system.cpu.dtb.stage2_mmu.stage2_tlb.inst_accesses            0                       # ITB inst accesses
system.cpu.dtb.stage2_mmu.stage2_tlb.inst_hits            0                       # ITB inst hits
system.cpu.dtb.stage2_mmu.stage2_tlb.inst_misses            0                       # ITB inst misses
system.cpu.dtb.stage2_mmu.stage2_tlb.misses            0                       # DTB misses
system.cpu.dtb.stage2_mmu.stage2_tlb.perms_faults            0                       # Number of TLB faults due to permissions restrictions
system.cpu.dtb.stage2_mmu.stage2_tlb.prefetch_faults            0                       # Number of TLB faults due to prefetch
system.cpu.dtb.stage2_mmu.stage2_tlb.read_accesses            0                       # DTB read accesses
system.cpu.dtb.stage2_mmu.stage2_tlb.read_hits            0                       # DTB read hits
system.cpu.dtb.stage2_mmu.stage2_tlb.read_misses            0                       # DTB read misses
system.cpu.dtb.stage2_mmu.stage2_tlb.walker.walkRequestOrigin_Requested::Data            0                       # Table walker requests started/completed, data/inst
system.cpu.dtb.stage2_mmu.stage2_tlb.walker.walkRequestOrigin_Requested::Inst            0                       # Table walker requests started/completed, data/inst
system.cpu.dtb.stage2_mmu.stage2_tlb.walker.walkRequestOrigin_Requested::total            0                       # Table walker requests started/completed, data/inst
system.cpu.dtb.stage2_mmu.stage2_tlb.walker.walkRequestOrigin_Completed::Data            0                       # Table walker requests started/completed, data/inst
system.cpu.dtb.stage2_mmu.stage2_tlb.walker.walkRequestOrigin_Completed::Inst            0                       # Table walker requests started/completed, data/inst
system.cpu.dtb.stage2_mmu.stage2_tlb.walker.walkRequestOrigin_Completed::total            0                       # Table walker requests started/completed, data/inst
system.cpu.dtb.stage2_mmu.stage2_tlb.walker.walkRequestOrigin::total            0                       # Table walker requests started/completed, data/inst
system.cpu.dtb.stage2_mmu.stage2_tlb.walker.walks            0                       # Table walker walks requested
system.cpu.dtb.stage2_mmu.stage2_tlb.write_accesses            0                       # DTB write accesses
system.cpu.dtb.stage2_mmu.stage2_tlb.write_hits            0                       # DTB write hits
system.cpu.dtb.stage2_mmu.stage2_tlb.write_misses            0                       # DTB write misses
system.cpu.dtb.walker.walkRequestOrigin_Requested::Data            0                       # Table walker requests started/completed, data/inst
system.cpu.dtb.walker.walkRequestOrigin_Requested::Inst            0                       # Table walker requests started/completed, data/inst
system.cpu.dtb.walker.walkRequestOrigin_Requested::total            0                       # Table walker requests started/completed, data/inst
system.cpu.dtb.walker.walkRequestOrigin_Completed::Data            0                       # Table walker requests started/completed, data/inst
system.cpu.dtb.walker.walkRequestOrigin_Completed::Inst            0                       # Table walker requests started/completed, data/inst
system.cpu.dtb.walker.walkRequestOrigin_Completed::total            0                       # Table walker requests started/completed, data/inst
system.cpu.dtb.walker.walkRequestOrigin::total            0                       # Table walker requests started/completed, data/inst
system.cpu.dtb.walker.walks                         0                       # Table walker walks requested
system.cpu.dtb.write_accesses                       0                       # DTB write accesses
system.cpu.dtb.write_hits                           0                       # DTB write hits
system.cpu.dtb.write_misses                         0                       # DTB write misses
system.cpu.fetch2.amo_instructions                  0                       # Number of memory atomic instructions successfully decoded
system.cpu.fetch2.fp_instructions                   0                       # Number of floating point instructions successfully decoded
system.cpu.fetch2.int_instructions             509719                       # Number of integer instructions successfully decoded
system.cpu.fetch2.load_instructions            291108                       # Number of memory load instructions successfully decoded
system.cpu.fetch2.store_instructions           108590                       # Number of memory store instructions successfully decoded
system.cpu.fetch2.vec_instructions              92241                       # Number of SIMD instructions successfully decoded
system.cpu.idleCycles                          228765                       # Total number of cycles that the object has spent stopped
system.cpu.ipc                               0.474522                       # IPC: instructions per cycle
system.cpu.itb.accesses                             0                       # DTB accesses
system.cpu.itb.align_faults                         0                       # Number of TLB faults due to alignment restrictions
system.cpu.itb.domain_faults                        0                       # Number of TLB faults due to domain restrictions
system.cpu.itb.flush_entries                        0                       # Number of entries that have been flushed from TLB
system.cpu.itb.flush_tlb                            0                       # Number of times complete TLB was flushed
system.cpu.itb.flush_tlb_asid                       0                       # Number of times TLB was flushed by ASID
system.cpu.itb.flush_tlb_mva                        0                       # Number of times TLB was flushed by MVA
system.cpu.itb.flush_tlb_mva_asid                   0                       # Number of times TLB was flushed by MVA & ASID
system.cpu.itb.hits                                 0                       # DTB hits
system.cpu.itb.inst_accesses                        0                       # ITB inst accesses
system.cpu.itb.inst_hits                            0                       # ITB inst hits
system.cpu.itb.inst_misses                          0                       # ITB inst misses
system.cpu.itb.misses                               0                       # DTB misses
system.cpu.itb.perms_faults                         0                       # Number of TLB faults due to permissions restrictions
system.cpu.itb.prefetch_faults                      0                       # Number of TLB faults due to prefetch
system.cpu.itb.read_accesses                        0                       # DTB read accesses
system.cpu.itb.read_hits                            0                       # DTB read hits
system.cpu.itb.read_misses                          0                       # DTB read misses
system.cpu.itb.stage2_mmu.stage2_tlb.accesses            0                       # DTB accesses
system.cpu.itb.stage2_mmu.stage2_tlb.align_faults            0                       # Number of TLB faults due to alignment restrictions
system.cpu.itb.stage2_mmu.stage2_tlb.domain_faults            0                       # Number of TLB faults due to domain restrictions
system.cpu.itb.stage2_mmu.stage2_tlb.flush_entries            0                       # Number of entries that have been flushed from TLB
system.cpu.itb.stage2_mmu.stage2_tlb.flush_tlb            0                       # Number of times complete TLB was flushed
system.cpu.itb.stage2_mmu.stage2_tlb.flush_tlb_asid            0                       # Number of times TLB was flushed by ASID
system.cpu.itb.stage2_mmu.stage2_tlb.flush_tlb_mva            0                       # Number of times TLB was flushed by MVA
system.cpu.itb.stage2_mmu.stage2_tlb.flush_tlb_mva_asid            0                       # Number of times TLB was flushed by MVA & ASID
system.cpu.itb.stage2_mmu.stage2_tlb.hits            0                       # DTB hits
system.cpu.itb.stage2_mmu.stage2_tlb.inst_accesses            0                       # ITB inst accesses
system.cpu.itb.stage2_mmu.stage2_tlb.inst_hits            0                       # ITB inst hits
system.cpu.itb.stage2_mmu.stage2_tlb.inst_misses            0                       # ITB inst misses
system.cpu.itb.stage2_mmu.stage2_tlb.misses            0                       # DTB misses
system.cpu.itb.stage2_mmu.stage2_tlb.perms_faults            0                       # Number of TLB faults due to permissions restrictions
system.cpu.itb.stage2_mmu.stage2_tlb.prefetch_faults            0                       # Number of TLB faults due to prefetch
system.cpu.itb.stage2_mmu.stage2_tlb.read_accesses            0                       # DTB read accesses
system.cpu.itb.stage2_mmu.stage2_tlb.read_hits            0                       # DTB read hits
system.cpu.itb.stage2_mmu.stage2_tlb.read_misses            0                       # DTB read misses
system.cpu.itb.stage2_mmu.stage2_tlb.walker.walkRequestOrigin_Requested::Data            0                       # Table walker requests started/completed, data/inst
system.cpu.itb.stage2_mmu.stage2_tlb.walker.walkRequestOrigin_Requested::Inst            0                       # Table walker requests started/completed, data/inst
system.cpu.itb.stage2_mmu.stage2_tlb.walker.walkRequestOrigin_Requested::total            0                       # Table walker requests started/completed, data/inst
system.cpu.itb.stage2_mmu.stage2_tlb.walker.walkRequestOrigin_Completed::Data            0                       # Table walker requests started/completed, data/inst
system.cpu.itb.stage2_mmu.stage2_tlb.walker.walkRequestOrigin_Completed::Inst            0                       # Table walker requests started/completed, data/inst
system.cpu.itb.stage2_mmu.stage2_tlb.walker.walkRequestOrigin_Completed::total            0                       # Table walker requests started/completed, data/inst
system.cpu.itb.stage2_mmu.stage2_tlb.walker.walkRequestOrigin::total            0                       # Table walker requests started/completed, data/inst
system.cpu.itb.stage2_mmu.stage2_tlb.walker.walks            0                       # Table walker walks requested
system.cpu.itb.stage2_mmu.stage2_tlb.write_accesses            0                       # DTB write accesses
system.cpu.itb.stage2_mmu.stage2_tlb.write_hits            0                       # DTB write hits
system.cpu.itb.stage2_mmu.stage2_tlb.write_misses            0                       # DTB write misses
system.cpu.itb.walker.walkRequestOrigin_Requested::Data            0                       # Table walker requests started/completed, data/inst
system.cpu.itb.walker.walkRequestOrigin_Requested::Inst            0                       # Table walker requests started/completed, data/inst
system.cpu.itb.walker.walkRequestOrigin_Requested::total            0                       # Table walker requests started/completed, data/inst
system.cpu.itb.walker.walkRequestOrigin_Completed::Data            0                       # Table walker requests started/completed, data/inst
system.cpu.itb.walker.walkRequestOrigin_Completed::Inst            0                       # Table walker requests started/completed, data/inst
system.cpu.itb.walker.walkRequestOrigin_Completed::total            0                       # Table walker requests started/completed, data/inst
system.cpu.itb.walker.walkRequestOrigin::total            0                       # Table walker requests started/completed, data/inst
system.cpu.itb.walker.walks                         0                       # Table walker walks requested
system.cpu.itb.write_accesses                       0                       # DTB write accesses
system.cpu.itb.write_hits                           0                       # DTB write hits
system.cpu.itb.write_misses                         0                       # DTB write misses
system.cpu.numCycles                          2107384                       # number of cpu cycles simulated
system.cpu.numFetchSuspends                         0                       # Number of times Execute suspended instruction fetching
system.cpu.numWorkItemsCompleted                    0                       # number of work items this cpu completed
system.cpu.numWorkItemsStarted                      0                       # number of work items this cpu started
system.cpu.op_class_0::No_OpClass                  10      0.00%      0.00% # Class of committed instruction
system.cpu.op_class_0::IntAlu                  571374     56.03%     56.03% # Class of committed instruction
system.cpu.op_class_0::IntMult                   6238      0.61%     56.64% # Class of committed instruction
system.cpu.op_class_0::IntDiv                       7      0.00%     56.64% # Class of committed instruction
system.cpu.op_class_0::FloatAdd                  4094      0.40%     57.05% # Class of committed instruction
system.cpu.op_class_0::FloatCmp                 15838      1.55%     58.60% # Class of committed instruction
system.cpu.op_class_0::FloatCvt                  6163      0.60%     59.20% # Class of committed instruction
system.cpu.op_class_0::FloatMult                21979      2.16%     61.36% # Class of committed instruction
system.cpu.op_class_0::FloatMultAcc             21979      2.16%     63.51% # Class of committed instruction
system.cpu.op_class_0::FloatDiv                    22      0.00%     63.52% # Class of committed instruction
system.cpu.op_class_0::FloatMisc                 2070      0.20%     63.72% # Class of committed instruction
system.cpu.op_class_0::FloatSqrt                    0      0.00%     63.72% # Class of committed instruction
system.cpu.op_class_0::SimdAdd                     32      0.00%     63.72% # Class of committed instruction
system.cpu.op_class_0::SimdAddAcc                   0      0.00%     63.72% # Class of committed instruction
system.cpu.op_class_0::SimdAlu                     37      0.00%     63.73% # Class of committed instruction
system.cpu.op_class_0::SimdCmp                     40      0.00%     63.73% # Class of committed instruction
system.cpu.op_class_0::SimdCvt                      0      0.00%     63.73% # Class of committed instruction
system.cpu.op_class_0::SimdMisc                  2082      0.20%     63.93% # Class of committed instruction
system.cpu.op_class_0::SimdMult                     0      0.00%     63.93% # Class of committed instruction
system.cpu.op_class_0::SimdMultAcc                  0      0.00%     63.93% # Class of committed instruction
system.cpu.op_class_0::SimdShift                    0      0.00%     63.93% # Class of committed instruction
system.cpu.op_class_0::SimdShiftAcc                 0      0.00%     63.93% # Class of committed instruction
system.cpu.op_class_0::SimdDiv                      0      0.00%     63.93% # Class of committed instruction
system.cpu.op_class_0::SimdSqrt                     0      0.00%     63.93% # Class of committed instruction
system.cpu.op_class_0::SimdFloatAdd                 0      0.00%     63.93% # Class of committed instruction
system.cpu.op_class_0::SimdFloatAlu                 0      0.00%     63.93% # Class of committed instruction
system.cpu.op_class_0::SimdFloatCmp                 0      0.00%     63.93% # Class of committed instruction
system.cpu.op_class_0::SimdFloatCvt                 0      0.00%     63.93% # Class of committed instruction
system.cpu.op_class_0::SimdFloatDiv                 0      0.00%     63.93% # Class of committed instruction
system.cpu.op_class_0::SimdFloatMisc                0      0.00%     63.93% # Class of committed instruction
system.cpu.op_class_0::SimdFloatMult                0      0.00%     63.93% # Class of committed instruction
system.cpu.op_class_0::SimdFloatMultAcc             0      0.00%     63.93% # Class of committed instruction
system.cpu.op_class_0::SimdFloatSqrt                0      0.00%     63.93% # Class of committed instruction
system.cpu.op_class_0::SimdReduceAdd                0      0.00%     63.93% # Class of committed instruction
system.cpu.op_class_0::SimdReduceAlu                0      0.00%     63.93% # Class of committed instruction
system.cpu.op_class_0::SimdReduceCmp                0      0.00%     63.93% # Class of committed instruction
system.cpu.op_class_0::SimdFloatReduceAdd            0      0.00%     63.93% # Class of committed instruction
system.cpu.op_class_0::SimdFloatReduceCmp            0      0.00%     63.93% # Class of committed instruction
system.cpu.op_class_0::SimdAes                      0      0.00%     63.93% # Class of committed instruction
system.cpu.op_class_0::SimdAesMix                   0      0.00%     63.93% # Class of committed instruction
system.cpu.op_class_0::SimdSha1Hash                 0      0.00%     63.93% # Class of committed instruction
system.cpu.op_class_0::SimdSha1Hash2                0      0.00%     63.93% # Class of committed instruction
system.cpu.op_class_0::SimdSha256Hash               0      0.00%     63.93% # Class of committed instruction
system.cpu.op_class_0::SimdSha256Hash2              0      0.00%     63.93% # Class of committed instruction
system.cpu.op_class_0::SimdShaSigma2                0      0.00%     63.93% # Class of committed instruction
system.cpu.op_class_0::SimdShaSigma3                0      0.00%     63.93% # Class of committed instruction
system.cpu.op_class_0::SimdPredAlu                  0      0.00%     63.93% # Class of committed instruction
system.cpu.op_class_0::MemRead                 256025     25.11%     89.04% # Class of committed instruction
system.cpu.op_class_0::MemWrite                111748     10.96%    100.00% # Class of committed instruction
system.cpu.op_class_0::FloatMemRead                 0      0.00%    100.00% # Class of committed instruction
system.cpu.op_class_0::FloatMemWrite                0      0.00%    100.00% # Class of committed instruction
system.cpu.op_class_0::IprAccess                    0      0.00%    100.00% # Class of committed instruction
system.cpu.op_class_0::InstPrefetch                 0      0.00%    100.00% # Class of committed instruction
system.cpu.op_class_0::total                  1019738                       # Class of committed instruction
system.cpu.tickCycles                         1878619                       # Number of cycles that the object actually ticked
system.cpu.workload.numSyscalls                     7                       # Number of system calls
system.membus.snoop_filter.hit_multi_requests            0                       # Number of requests hitting in the snoop filter with multiple (>1) holders of the requested data.
system.membus.snoop_filter.hit_multi_snoops            0                       # Number of snoops hitting in the snoop filter with multiple (>1) holders of the requested data.
system.membus.snoop_filter.hit_single_requests            0                       # Number of requests hitting in the snoop filter with a single holder of the requested data.
system.membus.snoop_filter.hit_single_snoops            0                       # Number of snoops hitting in the snoop filter with a single holder of the requested data.
system.membus.snoop_filter.tot_requests          1938                       # Total number of requests made to the snoop filter.
system.membus.snoop_filter.tot_snoops               0                       # Total number of snoops made to the snoop filter.
system.tol2bus.snoop_filter.hit_multi_requests            1                       # Number of requests hitting in the snoop filter with multiple (>1) holders of the requested data.
system.tol2bus.snoop_filter.hit_multi_snoops            0                       # Number of snoops hitting in the snoop filter with multiple (>1) holders of the requested data.
system.tol2bus.snoop_filter.hit_single_requests         1402                       # Number of requests hitting in the snoop filter with a single holder of the requested data.
system.tol2bus.snoop_filter.hit_single_snoops            0                       # Number of snoops hitting in the snoop filter with a single holder of the requested data.
system.tol2bus.snoop_filter.tot_requests         4080                       # Total number of requests made to the snoop filter.
system.tol2bus.snoop_filter.tot_snoops              0                       # Total number of snoops made to the snoop filter.
system.membus.trans_dist::ReadResp                693                       # Transaction distribution
system.membus.trans_dist::ReadExReq               700                       # Transaction distribution
system.membus.trans_dist::ReadExResp              700                       # Transaction distribution
system.membus.trans_dist::ReadSharedReq           693                       # Transaction distribution
system.membus.trans_dist::InvalidateReq           545                       # Transaction distribution
system.membus.pkt_count_system.l2.mem_side::system.mem_ctrls.port         3331                       # Packet count per connected master and slave (bytes)
system.membus.pkt_count::total                   3331                       # Packet count per connected master and slave (bytes)
system.membus.pkt_size_system.l2.mem_side::system.mem_ctrls.port        89152                       # Cumulative packet size per connected master and slave (bytes)
system.membus.pkt_size::total                   89152                       # Cumulative packet size per connected master and slave (bytes)
system.membus.snoops                                0                       # Total snoops (count)
system.membus.snoopTraffic                          0                       # Total snoop traffic (bytes)
system.membus.snoop_fanout::samples              1938                       # Request fanout histogram
system.membus.snoop_fanout::mean                    0                       # Request fanout histogram
system.membus.snoop_fanout::stdev                   0                       # Request fanout histogram
system.membus.snoop_fanout::underflows              0      0.00%      0.00% # Request fanout histogram
system.membus.snoop_fanout::0                    1938    100.00%    100.00% # Request fanout histogram
system.membus.snoop_fanout::1                       0      0.00%    100.00% # Request fanout histogram
system.membus.snoop_fanout::overflows               0      0.00%    100.00% # Request fanout histogram
system.membus.snoop_fanout::min_value               0                       # Request fanout histogram
system.membus.snoop_fanout::max_value               0                       # Request fanout histogram
system.membus.snoop_fanout::total                1938                       # Request fanout histogram
system.membus.reqLayer0.occupancy             2322500                       # Layer occupancy (ticks)
system.membus.reqLayer0.utilization               0.2                       # Layer utilization (%)
system.membus.respLayer1.occupancy            7393750                       # Layer occupancy (ticks)
system.membus.respLayer1.utilization              0.7                       # Layer utilization (%)
system.membus.power_state.pwrStateResidencyTicks::UNDEFINED   1053692000                       # Cumulative time (in ticks) in various power states
system.tol2bus.trans_dist::ReadResp              1227                       # Transaction distribution
system.tol2bus.trans_dist::WritebackDirty          707                       # Transaction distribution
system.tol2bus.trans_dist::WritebackClean          614                       # Transaction distribution
system.tol2bus.trans_dist::CleanEvict              81                       # Transaction distribution
system.tol2bus.trans_dist::ReadExReq              906                       # Transaction distribution
system.tol2bus.trans_dist::ReadExResp             906                       # Transaction distribution
system.tol2bus.trans_dist::ReadCleanReq           870                       # Transaction distribution
system.tol2bus.trans_dist::ReadSharedReq          357                       # Transaction distribution
system.tol2bus.trans_dist::InvalidateReq          545                       # Transaction distribution
system.tol2bus.trans_dist::InvalidateResp          545                       # Transaction distribution
system.tol2bus.pkt_count_system.cpu.icache.mem_side::system.l2.cpu_side         2354                       # Packet count per connected master and slave (bytes)
system.tol2bus.pkt_count_system.cpu.dcache.mem_side::system.l2.cpu_side         4404                       # Packet count per connected master and slave (bytes)
system.tol2bus.pkt_count::total                  6758                       # Packet count per connected master and slave (bytes)
system.tol2bus.pkt_size_system.cpu.icache.mem_side::system.l2.cpu_side        94976                       # Cumulative packet size per connected master and slave (bytes)
system.tol2bus.pkt_size_system.cpu.dcache.mem_side::system.l2.cpu_side       126080                       # Cumulative packet size per connected master and slave (bytes)
system.tol2bus.pkt_size::total                 221056                       # Cumulative packet size per connected master and slave (bytes)
system.tol2bus.snoops                               0                       # Total snoops (count)
system.tol2bus.snoopTraffic                         0                       # Total snoop traffic (bytes)
system.tol2bus.snoop_fanout::samples             2678                       # Request fanout histogram
system.tol2bus.snoop_fanout::mean            0.000373                       # Request fanout histogram
system.tol2bus.snoop_fanout::stdev           0.019324                       # Request fanout histogram
system.tol2bus.snoop_fanout::underflows             0      0.00%      0.00% # Request fanout histogram
system.tol2bus.snoop_fanout::0                   2677     99.96%     99.96% # Request fanout histogram
system.tol2bus.snoop_fanout::1                      1      0.04%    100.00% # Request fanout histogram
system.tol2bus.snoop_fanout::2                      0      0.00%    100.00% # Request fanout histogram
system.tol2bus.snoop_fanout::overflows              0      0.00%    100.00% # Request fanout histogram
system.tol2bus.snoop_fanout::min_value              0                       # Request fanout histogram
system.tol2bus.snoop_fanout::max_value              1                       # Request fanout histogram
system.tol2bus.snoop_fanout::total               2678                       # Request fanout histogram
system.tol2bus.reqLayer0.occupancy            3361000                       # Layer occupancy (ticks)
system.tol2bus.reqLayer0.utilization              0.3                       # Layer utilization (%)
system.tol2bus.respLayer1.occupancy           2167000                       # Layer occupancy (ticks)
system.tol2bus.respLayer1.utilization             0.2                       # Layer utilization (%)
system.tol2bus.respLayer0.occupancy           1305000                       # Layer occupancy (ticks)
system.tol2bus.respLayer0.utilization             0.1                       # Layer utilization (%)
system.tol2bus.power_state.pwrStateResidencyTicks::UNDEFINED   1053692000                       # Cumulative time (in ticks) in various power states
system.voltage_domain.voltage                       1                       # Voltage in Volts
system.clk_domain.clock                          1000                       # Clock period in ticks
system.l2.demand_hits::.cpu.inst                  273                       # number of demand (read+write) hits
system.l2.demand_hits::.cpu.data                  467                       # number of demand (read+write) hits
system.l2.demand_hits::total                      740                       # number of demand (read+write) hits
system.l2.overall_hits::.cpu.inst                 273                       # number of overall hits
system.l2.overall_hits::.cpu.data                 467                       # number of overall hits
system.l2.overall_hits::total                     740                       # number of overall hits
system.l2.demand_misses::.cpu.inst                597                       # number of demand (read+write) misses
system.l2.demand_misses::.cpu.data                796                       # number of demand (read+write) misses
system.l2.demand_misses::total                   1393                       # number of demand (read+write) misses
system.l2.overall_misses::.cpu.inst               597                       # number of overall misses
system.l2.overall_misses::.cpu.data               796                       # number of overall misses
system.l2.overall_misses::total                  1393                       # number of overall misses
system.l2.demand_miss_latency::.cpu.inst     45536000                       # number of demand (read+write) miss cycles
system.l2.demand_miss_latency::.cpu.data     61213000                       # number of demand (read+write) miss cycles
system.l2.demand_miss_latency::total        106749000                       # number of demand (read+write) miss cycles
system.l2.overall_miss_latency::.cpu.inst     45536000                       # number of overall miss cycles
system.l2.overall_miss_latency::.cpu.data     61213000                       # number of overall miss cycles
system.l2.overall_miss_latency::total       106749000                       # number of overall miss cycles
system.l2.demand_accesses::.cpu.inst              870                       # number of demand (read+write) accesses
system.l2.demand_accesses::.cpu.data             1263                       # number of demand (read+write) accesses
system.l2.demand_accesses::total                 2133                       # number of demand (read+write) accesses
system.l2.overall_accesses::.cpu.inst             870                       # number of overall (read+write) accesses
system.l2.overall_accesses::.cpu.data            1263                       # number of overall (read+write) accesses
system.l2.overall_accesses::total                2133                       # number of overall (read+write) accesses
system.l2.demand_miss_rate::.cpu.inst        0.686207                       # miss rate for demand accesses
system.l2.demand_miss_rate::.cpu.data        0.630245                       # miss rate for demand accesses
system.l2.demand_miss_rate::total            0.653071                       # miss rate for demand accesses
system.l2.overall_miss_rate::.cpu.inst       0.686207                       # miss rate for overall accesses
system.l2.overall_miss_rate::.cpu.data       0.630245                       # miss rate for overall accesses
system.l2.overall_miss_rate::total           0.653071                       # miss rate for overall accesses
system.l2.demand_avg_miss_latency::.cpu.inst 76274.706868                       # average overall miss latency
system.l2.demand_avg_miss_latency::.cpu.data 76900.753769                       # average overall miss latency
system.l2.demand_avg_miss_latency::total 76632.447954                       # average overall miss latency
system.l2.overall_avg_miss_latency::.cpu.inst 76274.706868                       # average overall miss latency
system.l2.overall_avg_miss_latency::.cpu.data 76900.753769                       # average overall miss latency
system.l2.overall_avg_miss_latency::total 76632.447954                       # average overall miss latency
system.l2.blocked_cycles::no_mshrs                  0                       # number of cycles access was blocked
system.l2.blocked_cycles::no_targets                0                       # number of cycles access was blocked
system.l2.blocked::no_mshrs                         0                       # number of cycles access was blocked
system.l2.blocked::no_targets                       0                       # number of cycles access was blocked
system.l2.avg_blocked_cycles::no_mshrs            nan                       # average number of cycles each access was blocked
system.l2.avg_blocked_cycles::no_targets          nan                       # average number of cycles each access was blocked
system.l2.demand_mshr_misses::.cpu.inst           597                       # number of demand (read+write) MSHR misses
system.l2.demand_mshr_misses::.cpu.data           796                       # number of demand (read+write) MSHR misses
system.l2.demand_mshr_misses::total              1393                       # number of demand (read+write) MSHR misses
system.l2.overall_mshr_misses::.cpu.inst          597                       # number of overall MSHR misses
system.l2.overall_mshr_misses::.cpu.data          796                       # number of overall MSHR misses
system.l2.overall_mshr_misses::total             1393                       # number of overall MSHR misses
system.l2.demand_mshr_miss_latency::.cpu.inst     39566000                       # number of demand (read+write) MSHR miss cycles
system.l2.demand_mshr_miss_latency::.cpu.data     53253000                       # number of demand (read+write) MSHR miss cycles
system.l2.demand_mshr_miss_latency::total     92819000                       # number of demand (read+write) MSHR miss cycles
system.l2.overall_mshr_miss_latency::.cpu.inst     39566000                       # number of overall MSHR miss cycles
system.l2.overall_mshr_miss_latency::.cpu.data     53253000                       # number of overall MSHR miss cycles
system.l2.overall_mshr_miss_latency::total     92819000                       # number of overall MSHR miss cycles
system.l2.demand_mshr_miss_rate::.cpu.inst     0.686207                       # mshr miss rate for demand accesses
system.l2.demand_mshr_miss_rate::.cpu.data     0.630245                       # mshr miss rate for demand accesses
system.l2.demand_mshr_miss_rate::total       0.653071                       # mshr miss rate for demand accesses
system.l2.overall_mshr_miss_rate::.cpu.inst     0.686207                       # mshr miss rate for overall accesses
system.l2.overall_mshr_miss_rate::.cpu.data     0.630245                       # mshr miss rate for overall accesses
system.l2.overall_mshr_miss_rate::total      0.653071                       # mshr miss rate for overall accesses
system.l2.demand_avg_mshr_miss_latency::.cpu.inst 66274.706868                       # average overall mshr miss latency
system.l2.demand_avg_mshr_miss_latency::.cpu.data 66900.753769                       # average overall mshr miss latency
system.l2.demand_avg_mshr_miss_latency::total 66632.447954                       # average overall mshr miss latency
system.l2.overall_avg_mshr_miss_latency::.cpu.inst 66274.706868                       # average overall mshr miss latency
system.l2.overall_avg_mshr_miss_latency::.cpu.data 66900.753769                       # average overall mshr miss latency
system.l2.overall_avg_mshr_miss_latency::total 66632.447954                       # average overall mshr miss latency
system.l2.replacements                              0                       # number of replacements
system.l2.WritebackDirty_hits::.writebacks          707                       # number of WritebackDirty hits
system.l2.WritebackDirty_hits::total              707                       # number of WritebackDirty hits
system.l2.WritebackDirty_accesses::.writebacks          707                       # number of WritebackDirty accesses(hits+misses)
system.l2.WritebackDirty_accesses::total          707                       # number of WritebackDirty accesses(hits+misses)
system.l2.WritebackClean_hits::.writebacks          614                       # number of WritebackClean hits
system.l2.WritebackClean_hits::total              614                       # number of WritebackClean hits
system.l2.WritebackClean_accesses::.writebacks          614                       # number of WritebackClean accesses(hits+misses)
system.l2.WritebackClean_accesses::total          614                       # number of WritebackClean accesses(hits+misses)
system.l2.ReadExReq_hits::.cpu.data               206                       # number of ReadExReq hits
system.l2.ReadExReq_hits::total                   206                       # number of ReadExReq hits
system.l2.ReadExReq_misses::.cpu.data             700                       # number of ReadExReq misses
system.l2.ReadExReq_misses::total                 700                       # number of ReadExReq misses
system.l2.ReadExReq_miss_latency::.cpu.data     53538500                       # number of ReadExReq miss cycles
system.l2.ReadExReq_miss_latency::total      53538500                       # number of ReadExReq miss cycles
system.l2.ReadExReq_accesses::.cpu.data           906                       # number of ReadExReq accesses(hits+misses)
system.l2.ReadExReq_accesses::total               906                       # number of ReadExReq accesses(hits+misses)
system.l2.ReadExReq_miss_rate::.cpu.data     0.772627                       # miss rate for ReadExReq accesses
system.l2.ReadExReq_miss_rate::total         0.772627                       # miss rate for ReadExReq accesses
system.l2.ReadExReq_avg_miss_latency::.cpu.data 76483.571429                       # average ReadExReq miss latency
system.l2.ReadExReq_avg_miss_latency::total 76483.571429                       # average ReadExReq miss latency
system.l2.ReadExReq_mshr_misses::.cpu.data          700                       # number of ReadExReq MSHR misses
system.l2.ReadExReq_mshr_misses::total            700                       # number of ReadExReq MSHR misses
system.l2.ReadExReq_mshr_miss_latency::.cpu.data     46538500                       # number of ReadExReq MSHR miss cycles
system.l2.ReadExReq_mshr_miss_latency::total     46538500                       # number of ReadExReq MSHR miss cycles
system.l2.ReadExReq_mshr_miss_rate::.cpu.data     0.772627                       # mshr miss rate for ReadExReq accesses
system.l2.ReadExReq_mshr_miss_rate::total     0.772627                       # mshr miss rate for ReadExReq accesses
system.l2.ReadExReq_avg_mshr_miss_latency::.cpu.data 66483.571429                       # average ReadExReq mshr miss latency
system.l2.ReadExReq_avg_mshr_miss_latency::total 66483.571429                       # average ReadExReq mshr miss latency
system.l2.ReadCleanReq_hits::.cpu.inst            273                       # number of ReadCleanReq hits
system.l2.ReadCleanReq_hits::total                273                       # number of ReadCleanReq hits
system.l2.ReadCleanReq_misses::.cpu.inst          597                       # number of ReadCleanReq misses
system.l2.ReadCleanReq_misses::total              597                       # number of ReadCleanReq misses
system.l2.ReadCleanReq_miss_latency::.cpu.inst     45536000                       # number of ReadCleanReq miss cycles
system.l2.ReadCleanReq_miss_latency::total     45536000                       # number of ReadCleanReq miss cycles
system.l2.ReadCleanReq_accesses::.cpu.inst          870                       # number of ReadCleanReq accesses(hits+misses)
system.l2.ReadCleanReq_accesses::total            870                       # number of ReadCleanReq accesses(hits+misses)
system.l2.ReadCleanReq_miss_rate::.cpu.inst     0.686207                       # miss rate for ReadCleanReq accesses
system.l2.ReadCleanReq_miss_rate::total      0.686207                       # miss rate for ReadCleanReq accesses
system.l2.ReadCleanReq_avg_miss_latency::.cpu.inst 76274.706868                       # average ReadCleanReq miss latency
system.l2.ReadCleanReq_avg_miss_latency::total 76274.706868                       # average ReadCleanReq miss latency
system.l2.ReadCleanReq_mshr_misses::.cpu.inst          597                       # number of ReadCleanReq MSHR misses
system.l2.ReadCleanReq_mshr_misses::total          597                       # number of ReadCleanReq MSHR misses
system.l2.ReadCleanReq_mshr_miss_latency::.cpu.inst     39566000                       # number of ReadCleanReq MSHR miss cycles
system.l2.ReadCleanReq_mshr_miss_latency::total     39566000                       # number of ReadCleanReq MSHR miss cycles
system.l2.ReadCleanReq_mshr_miss_rate::.cpu.inst     0.686207                       # mshr miss rate for ReadCleanReq accesses
system.l2.ReadCleanReq_mshr_miss_rate::total     0.686207                       # mshr miss rate for ReadCleanReq accesses
system.l2.ReadCleanReq_avg_mshr_miss_latency::.cpu.inst 66274.706868                       # average ReadCleanReq mshr miss latency
system.l2.ReadCleanReq_avg_mshr_miss_latency::total 66274.706868                       # average ReadCleanReq mshr miss latency
system.l2.ReadSharedReq_hits::.cpu.data           261                       # number of ReadSharedReq hits
system.l2.ReadSharedReq_hits::total               261                       # number of ReadSharedReq hits
system.l2.ReadSharedReq_misses::.cpu.data           96                       # number of ReadSharedReq misses
system.l2.ReadSharedReq_misses::total              96                       # number of ReadSharedReq misses
system.l2.ReadSharedReq_miss_latency::.cpu.data      7674500                       # number of ReadSharedReq miss cycles
system.l2.ReadSharedReq_miss_latency::total      7674500                       # number of ReadSharedReq miss cycles
system.l2.ReadSharedReq_accesses::.cpu.data          357                       # number of ReadSharedReq accesses(hits+misses)
system.l2.ReadSharedReq_accesses::total           357                       # number of ReadSharedReq accesses(hits+misses)
system.l2.ReadSharedReq_miss_rate::.cpu.data     0.268908                       # miss rate for ReadSharedReq accesses
system.l2.ReadSharedReq_miss_rate::total     0.268908                       # miss rate for ReadSharedReq accesses
system.l2.ReadSharedReq_avg_miss_latency::.cpu.data 79942.708333                       # average ReadSharedReq miss latency
system.l2.ReadSharedReq_avg_miss_latency::total 79942.708333                       # average ReadSharedReq miss latency
system.l2.ReadSharedReq_mshr_misses::.cpu.data           96                       # number of ReadSharedReq MSHR misses
system.l2.ReadSharedReq_mshr_misses::total           96                       # number of ReadSharedReq MSHR misses
system.l2.ReadSharedReq_mshr_miss_latency::.cpu.data      6714500                       # number of ReadSharedReq MSHR miss cycles
system.l2.ReadSharedReq_mshr_miss_latency::total      6714500                       # number of ReadSharedReq MSHR miss cycles
system.l2.ReadSharedReq_mshr_miss_rate::.cpu.data     0.268908                       # mshr miss rate for ReadSharedReq accesses
system.l2.ReadSharedReq_mshr_miss_rate::total     0.268908                       # mshr miss rate for ReadSharedReq accesses
system.l2.ReadSharedReq_avg_mshr_miss_latency::.cpu.data 69942.708333                       # average ReadSharedReq mshr miss latency
system.l2.ReadSharedReq_avg_mshr_miss_latency::total 69942.708333                       # average ReadSharedReq mshr miss latency
system.l2.InvalidateReq_misses::.cpu.data          545                       # number of InvalidateReq misses
system.l2.InvalidateReq_misses::total             545                       # number of InvalidateReq misses
system.l2.InvalidateReq_accesses::.cpu.data          545                       # number of InvalidateReq accesses(hits+misses)
system.l2.InvalidateReq_accesses::total           545                       # number of InvalidateReq accesses(hits+misses)
system.l2.InvalidateReq_miss_rate::.cpu.data            1                       # miss rate for InvalidateReq accesses
system.l2.InvalidateReq_miss_rate::total            1                       # miss rate for InvalidateReq accesses
system.l2.InvalidateReq_mshr_misses::.cpu.data          545                       # number of InvalidateReq MSHR misses
system.l2.InvalidateReq_mshr_misses::total          545                       # number of InvalidateReq MSHR misses
system.l2.InvalidateReq_mshr_miss_latency::.cpu.data     10357000                       # number of InvalidateReq MSHR miss cycles
system.l2.InvalidateReq_mshr_miss_latency::total     10357000                       # number of InvalidateReq MSHR miss cycles
system.l2.InvalidateReq_mshr_miss_rate::.cpu.data            1                       # mshr miss rate for InvalidateReq accesses
system.l2.InvalidateReq_mshr_miss_rate::total            1                       # mshr miss rate for InvalidateReq accesses
system.l2.InvalidateReq_avg_mshr_miss_latency::.cpu.data 19003.669725                       # average InvalidateReq mshr miss latency
system.l2.InvalidateReq_avg_mshr_miss_latency::total 19003.669725                       # average InvalidateReq mshr miss latency
system.l2.power_state.pwrStateResidencyTicks::UNDEFINED   1053692000                       # Cumulative time (in ticks) in various power states
system.l2.tags.tagsinuse                   961.230661                       # Cycle average of tags in use
system.l2.tags.total_refs                        3534                       # Total number of references to valid blocks.
system.l2.tags.sampled_refs                      1495                       # Sample count of references to valid blocks.
system.l2.tags.avg_refs                      2.363880                       # Average number of references to valid blocks.
system.l2.tags.warmup_cycle                     77000                       # Cycle when the warmup percentage was hit.
system.l2.tags.occ_blocks::.writebacks      31.647727                       # Average occupied blocks per requestor
system.l2.tags.occ_blocks::.cpu.inst       556.521404                       # Average occupied blocks per requestor
system.l2.tags.occ_blocks::.cpu.data       373.061531                       # Average occupied blocks per requestor
system.l2.tags.occ_percent::.writebacks      0.000966                       # Average percentage of cache occupancy
system.l2.tags.occ_percent::.cpu.inst        0.016984                       # Average percentage of cache occupancy
system.l2.tags.occ_percent::.cpu.data        0.011385                       # Average percentage of cache occupancy
system.l2.tags.occ_percent::total            0.029334                       # Average percentage of cache occupancy
system.l2.tags.occ_task_id_blocks::1024          1495                       # Occupied blocks per task id
system.l2.tags.age_task_id_blocks_1024::1          154                       # Occupied blocks per task id
system.l2.tags.age_task_id_blocks_1024::2          675                       # Occupied blocks per task id
system.l2.tags.age_task_id_blocks_1024::3          666                       # Occupied blocks per task id
system.l2.tags.occ_task_id_percent::1024     0.045624                       # Percentage of cache occupancy per task id
system.l2.tags.tag_accesses                     34127                       # Number of tag accesses
system.l2.tags.data_accesses                    34127                       # Number of data accesses
system.l2.tags.power_state.pwrStateResidencyTicks::UNDEFINED   1053692000                       # Cumulative time (in ticks) in various power states
system.cpu_voltage_domain.voltage                   1                       # Voltage in Volts
system.mem_ctrls.bytes_read::.cpu.inst          38208                       # Number of bytes read from this memory
system.mem_ctrls.bytes_read::.cpu.data          50944                       # Number of bytes read from this memory
system.mem_ctrls.bytes_read::total              89152                       # Number of bytes read from this memory
system.mem_ctrls.bytes_inst_read::.cpu.inst        38208                       # Number of instructions bytes read from this memory
system.mem_ctrls.bytes_inst_read::total         38208                       # Number of instructions bytes read from this memory
system.mem_ctrls.num_reads::.cpu.inst             597                       # Number of read requests responded to by this memory
system.mem_ctrls.num_reads::.cpu.data             796                       # Number of read requests responded to by this memory
system.mem_ctrls.num_reads::total                1393                       # Number of read requests responded to by this memory
system.mem_ctrls.bw_read::.cpu.inst          36261071                       # Total read bandwidth from this memory (bytes/s)
system.mem_ctrls.bw_read::.cpu.data          48348094                       # Total read bandwidth from this memory (bytes/s)
system.mem_ctrls.bw_read::total              84609165                       # Total read bandwidth from this memory (bytes/s)
system.mem_ctrls.bw_inst_read::.cpu.inst     36261071                       # Instruction read bandwidth from this memory (bytes/s)
system.mem_ctrls.bw_inst_read::total         36261071                       # Instruction read bandwidth from this memory (bytes/s)
system.mem_ctrls.bw_total::.cpu.inst         36261071                       # Total bandwidth to/from this memory (bytes/s)
system.mem_ctrls.bw_total::.cpu.data         48348094                       # Total bandwidth to/from this memory (bytes/s)
system.mem_ctrls.bw_total::total             84609165                       # Total bandwidth to/from this memory (bytes/s)
system.mem_ctrls.avgPriority_.cpu.inst::samples       597.00                       # Average QoS priority value for accepted requests
system.mem_ctrls.avgPriority_.cpu.data::samples       796.00                       # Average QoS priority value for accepted requests
system.mem_ctrls.priorityMinLatency      0.000000018750                       # per QoS priority minimum request to response latency (s)
system.mem_ctrls.priorityMaxLatency      0.000000577500                       # per QoS priority maximum request to response latency (s)
system.mem_ctrls.numReadWriteTurnArounds            0                       # Number of turnarounds from READ to WRITE
system.mem_ctrls.numWriteReadTurnArounds            0                       # Number of turnarounds from WRITE to READ
system.mem_ctrls.numStayReadState                3046                       # Number of times bus staying in READ state
system.mem_ctrls.numStayWriteState                  0                       # Number of times bus staying in WRITE state
system.mem_ctrls.readReqs                        1393                       # Number of read requests accepted
system.mem_ctrls.writeReqs                          0                       # Number of write requests accepted
system.mem_ctrls.readBursts                      1393                       # Number of DRAM read bursts, including those serviced by the write queue
system.mem_ctrls.writeBursts                        0                       # Number of DRAM write bursts, including those merged in the write queue
system.mem_ctrls.servicedByWrQ                      0                       # Number of DRAM read bursts serviced by the write queue
system.mem_ctrls.mergedWrBursts                     0                       # Number of DRAM write bursts merged with an existing one
system.mem_ctrls.neitherReadNorWriteReqs            0                       # Number of requests that are neither read nor write
system.mem_ctrls.perBankRdBursts::0               173                       # Per bank write bursts
system.mem_ctrls.perBankRdBursts::1                65                       # Per bank write bursts
system.mem_ctrls.perBankRdBursts::2                72                       # Per bank write bursts
system.mem_ctrls.perBankRdBursts::3                77                       # Per bank write bursts
system.mem_ctrls.perBankRdBursts::4               124                       # Per bank write bursts
system.mem_ctrls.perBankRdBursts::5                 5                       # Per bank write bursts
system.mem_ctrls.perBankRdBursts::6                38                       # Per bank write bursts
system.mem_ctrls.perBankRdBursts::7                 0                       # Per bank write bursts
system.mem_ctrls.perBankRdBursts::8               110                       # Per bank write bursts
system.mem_ctrls.perBankRdBursts::9               145                       # Per bank write bursts
system.mem_ctrls.perBankRdBursts::10              141                       # Per bank write bursts
system.mem_ctrls.perBankRdBursts::11              103                       # Per bank write bursts
system.mem_ctrls.perBankRdBursts::12              163                       # Per bank write bursts
system.mem_ctrls.perBankRdBursts::13               11                       # Per bank write bursts
system.mem_ctrls.perBankRdBursts::14               50                       # Per bank write bursts
system.mem_ctrls.perBankRdBursts::15              116                       # Per bank write bursts
system.mem_ctrls.perBankWrBursts::0                 0                       # Per bank write bursts
system.mem_ctrls.perBankWrBursts::1                 0                       # Per bank write bursts
system.mem_ctrls.perBankWrBursts::2                 0                       # Per bank write bursts
system.mem_ctrls.perBankWrBursts::3                 0                       # Per bank write bursts
system.mem_ctrls.perBankWrBursts::4                 0                       # Per bank write bursts
system.mem_ctrls.perBankWrBursts::5                 0                       # Per bank write bursts
system.mem_ctrls.perBankWrBursts::6                 0                       # Per bank write bursts
system.mem_ctrls.perBankWrBursts::7                 0                       # Per bank write bursts
system.mem_ctrls.perBankWrBursts::8                 0                       # Per bank write bursts
system.mem_ctrls.perBankWrBursts::9                 0                       # Per bank write bursts
system.mem_ctrls.perBankWrBursts::10                0                       # Per bank write bursts
system.mem_ctrls.perBankWrBursts::11                0                       # Per bank write bursts
system.mem_ctrls.perBankWrBursts::12                0                       # Per bank write bursts
system.mem_ctrls.perBankWrBursts::13                0                       # Per bank write bursts
system.mem_ctrls.perBankWrBursts::14                0                       # Per bank write bursts
system.mem_ctrls.perBankWrBursts::15                0                       # Per bank write bursts
system.mem_ctrls.avgRdQLen                       1.01                       # Average read queue length when enqueuing
system.mem_ctrls.avgWrQLen                       0.00                       # Average write queue length when enqueuing
system.mem_ctrls.totQLat                      9579000                       # Total ticks spent queuing
system.mem_ctrls.totBusLat                    6965000                       # Total ticks spent in databus transfers
system.mem_ctrls.totMemAccLat                35697750                       # Total ticks spent from burst creation until serviced by the DRAM
system.mem_ctrls.avgQLat                      6876.53                       # Average queueing delay per DRAM burst
system.mem_ctrls.avgBusLat                    5000.00                       # Average bus latency per DRAM burst
system.mem_ctrls.avgMemAccLat                25626.53                       # Average memory access latency per DRAM burst
system.mem_ctrls.numRdRetry                         0                       # Number of times read queue was full causing retry
system.mem_ctrls.numWrRetry                         0                       # Number of times write queue was full causing retry
system.mem_ctrls.readRowHits                     1150                       # Number of row buffer hits during reads
system.mem_ctrls.writeRowHits                       0                       # Number of row buffer hits during writes
system.mem_ctrls.readRowHitRate                 82.56                       # Row buffer hit rate for reads
system.mem_ctrls.writeRowHitRate                  nan                       # Row buffer hit rate for writes
system.mem_ctrls.readPktSize::0                     0                       # Read request sizes (log2)
system.mem_ctrls.readPktSize::1                     0                       # Read request sizes (log2)
system.mem_ctrls.readPktSize::2                     0                       # Read request sizes (log2)
system.mem_ctrls.readPktSize::3                     0                       # Read request sizes (log2)
system.mem_ctrls.readPktSize::4                     0                       # Read request sizes (log2)
system.mem_ctrls.readPktSize::5                     0                       # Read request sizes (log2)
system.mem_ctrls.readPktSize::6                  1393                       # Read request sizes (log2)
system.mem_ctrls.writePktSize::0                    0                       # Write request sizes (log2)
system.mem_ctrls.writePktSize::1                    0                       # Write request sizes (log2)
system.mem_ctrls.writePktSize::2                    0                       # Write request sizes (log2)
system.mem_ctrls.writePktSize::3                    0                       # Write request sizes (log2)
system.mem_ctrls.writePktSize::4                    0                       # Write request sizes (log2)
system.mem_ctrls.writePktSize::5                    0                       # Write request sizes (log2)
system.mem_ctrls.writePktSize::6                    0                       # Write request sizes (log2)
system.mem_ctrls.rdQLenPdf::0                    1281                       # What read queue length does an incoming req see
system.mem_ctrls.rdQLenPdf::1                     103                       # What read queue length does an incoming req see
system.mem_ctrls.rdQLenPdf::2                       9                       # What read queue length does an incoming req see
system.mem_ctrls.rdQLenPdf::3                       0                       # What read queue length does an incoming req see
system.mem_ctrls.rdQLenPdf::4                       0                       # What read queue length does an incoming req see
system.mem_ctrls.rdQLenPdf::5                       0                       # What read queue length does an incoming req see
system.mem_ctrls.rdQLenPdf::6                       0                       # What read queue length does an incoming req see
system.mem_ctrls.rdQLenPdf::7                       0                       # What read queue length does an incoming req see
system.mem_ctrls.rdQLenPdf::8                       0                       # What read queue length does an incoming req see
system.mem_ctrls.rdQLenPdf::9                       0                       # What read queue length does an incoming req see
system.mem_ctrls.rdQLenPdf::10                      0                       # What read queue length does an incoming req see
system.mem_ctrls.rdQLenPdf::11                      0                       # What read queue length does an incoming req see
system.mem_ctrls.rdQLenPdf::12                      0                       # What read queue length does an incoming req see
system.mem_ctrls.rdQLenPdf::13                      0                       # What read queue length does an incoming req see
system.mem_ctrls.rdQLenPdf::14                      0                       # What read queue length does an incoming req see
system.mem_ctrls.rdQLenPdf::15                      0                       # What read queue length does an incoming req see
system.mem_ctrls.rdQLenPdf::16                      0                       # What read queue length does an incoming req see
system.mem_ctrls.rdQLenPdf::17                      0                       # What read queue length does an incoming req see
system.mem_ctrls.rdQLenPdf::18                      0                       # What read queue length does an incoming req see
system.mem_ctrls.rdQLenPdf::19                      0                       # What read queue length does an incoming req see
system.mem_ctrls.rdQLenPdf::20                      0                       # What read queue length does an incoming req see
system.mem_ctrls.rdQLenPdf::21                      0                       # What read queue length does an incoming req see
system.mem_ctrls.rdQLenPdf::22                      0                       # What read queue length does an incoming req see
system.mem_ctrls.rdQLenPdf::23                      0                       # What read queue length does an incoming req see
system.mem_ctrls.rdQLenPdf::24                      0                       # What read queue length does an incoming req see
system.mem_ctrls.rdQLenPdf::25                      0                       # What read queue length does an incoming req see
system.mem_ctrls.rdQLenPdf::26                      0                       # What read queue length does an incoming req see
system.mem_ctrls.rdQLenPdf::27                      0                       # What read queue length does an incoming req see
system.mem_ctrls.rdQLenPdf::28                      0                       # What read queue length does an incoming req see
system.mem_ctrls.rdQLenPdf::29                      0                       # What read queue length does an incoming req see
system.mem_ctrls.rdQLenPdf::30                      0                       # What read queue length does an incoming req see
system.mem_ctrls.rdQLenPdf::31                      0                       # What read queue length does an incoming req see
system.mem_ctrls.wrQLenPdf::0                       0                       # What write queue length does an incoming req see
system.mem_ctrls.wrQLenPdf::1                       0                       # What write queue length does an incoming req see
system.mem_ctrls.wrQLenPdf::2                       0                       # What write queue length does an incoming req see
system.mem_ctrls.wrQLenPdf::3                       0                       # What write queue length does an incoming req see
system.mem_ctrls.wrQLenPdf::4                       0                       # What write queue length does an incoming req see
system.mem_ctrls.wrQLenPdf::5                       0                       # What write queue length does an incoming req see
system.mem_ctrls.wrQLenPdf::6                       0                       # What write queue length does an incoming req see
system.mem_ctrls.wrQLenPdf::7                       0                       # What write queue length does an incoming req see
system.mem_ctrls.wrQLenPdf::8                       0                       # What write queue length does an incoming req see
system.mem_ctrls.wrQLenPdf::9                       0                       # What write queue length does an incoming req see
system.mem_ctrls.wrQLenPdf::10                      0                       # What write queue length does an incoming req see
system.mem_ctrls.wrQLenPdf::11                      0                       # What write queue length does an incoming req see
system.mem_ctrls.wrQLenPdf::12                      0                       # What write queue length does an incoming req see
system.mem_ctrls.wrQLenPdf::13                      0                       # What write queue length does an incoming req see
system.mem_ctrls.wrQLenPdf::14                      0                       # What write queue length does an incoming req see
system.mem_ctrls.wrQLenPdf::15                      0                       # What write queue length does an incoming req see
system.mem_ctrls.wrQLenPdf::16                      0                       # What write queue length does an incoming req see
system.mem_ctrls.wrQLenPdf::17                      0                       # What write queue length does an incoming req see
system.mem_ctrls.wrQLenPdf::18                      0                       # What write queue length does an incoming req see
system.mem_ctrls.wrQLenPdf::19                      0                       # What write queue length does an incoming req see
system.mem_ctrls.wrQLenPdf::20                      0                       # What write queue length does an incoming req see
system.mem_ctrls.wrQLenPdf::21                      0                       # What write queue length does an incoming req see
system.mem_ctrls.wrQLenPdf::22                      0                       # What write queue length does an incoming req see
system.mem_ctrls.wrQLenPdf::23                      0                       # What write queue length does an incoming req see
system.mem_ctrls.wrQLenPdf::24                      0                       # What write queue length does an incoming req see
system.mem_ctrls.wrQLenPdf::25                      0                       # What write queue length does an incoming req see
system.mem_ctrls.wrQLenPdf::26                      0                       # What write queue length does an incoming req see
system.mem_ctrls.wrQLenPdf::27                      0                       # What write queue length does an incoming req see
system.mem_ctrls.wrQLenPdf::28                      0                       # What write queue length does an incoming req see
system.mem_ctrls.wrQLenPdf::29                      0                       # What write queue length does an incoming req see
system.mem_ctrls.wrQLenPdf::30                      0                       # What write queue length does an incoming req see
system.mem_ctrls.wrQLenPdf::31                      0                       # What write queue length does an incoming req see
system.mem_ctrls.wrQLenPdf::32                      0                       # What write queue length does an incoming req see
system.mem_ctrls.wrQLenPdf::33                      0                       # What write queue length does an incoming req see
system.mem_ctrls.wrQLenPdf::34                      0                       # What write queue length does an incoming req see
system.mem_ctrls.wrQLenPdf::35                      0                       # What write queue length does an incoming req see
system.mem_ctrls.wrQLenPdf::36                      0                       # What write queue length does an incoming req see
system.mem_ctrls.wrQLenPdf::37                      0                       # What write queue length does an incoming req see
system.mem_ctrls.wrQLenPdf::38                      0                       # What write queue length does an incoming req see
system.mem_ctrls.wrQLenPdf::39                      0                       # What write queue length does an incoming req see
system.mem_ctrls.wrQLenPdf::40                      0                       # What write queue length does an incoming req see
system.mem_ctrls.wrQLenPdf::41                      0                       # What write queue length does an incoming req see
system.mem_ctrls.wrQLenPdf::42                      0                       # What write queue length does an incoming req see
system.mem_ctrls.wrQLenPdf::43                      0                       # What write queue length does an incoming req see
system.mem_ctrls.wrQLenPdf::44                      0                       # What write queue length does an incoming req see
system.mem_ctrls.wrQLenPdf::45                      0                       # What write queue length does an incoming req see
system.mem_ctrls.wrQLenPdf::46                      0                       # What write queue length does an incoming req see
system.mem_ctrls.wrQLenPdf::47                      0                       # What write queue length does an incoming req see
system.mem_ctrls.wrQLenPdf::48                      0                       # What write queue length does an incoming req see
system.mem_ctrls.wrQLenPdf::49                      0                       # What write queue length does an incoming req see
system.mem_ctrls.wrQLenPdf::50                      0                       # What write queue length does an incoming req see
system.mem_ctrls.wrQLenPdf::51                      0                       # What write queue length does an incoming req see
system.mem_ctrls.wrQLenPdf::52                      0                       # What write queue length does an incoming req see
system.mem_ctrls.wrQLenPdf::53                      0                       # What write queue length does an incoming req see
system.mem_ctrls.wrQLenPdf::54                      0                       # What write queue length does an incoming req see
system.mem_ctrls.wrQLenPdf::55                      0                       # What write queue length does an incoming req see
system.mem_ctrls.wrQLenPdf::56                      0                       # What write queue length does an incoming req see
system.mem_ctrls.wrQLenPdf::57                      0                       # What write queue length does an incoming req see
system.mem_ctrls.wrQLenPdf::58                      0                       # What write queue length does an incoming req see
system.mem_ctrls.wrQLenPdf::59                      0                       # What write queue length does an incoming req see
system.mem_ctrls.wrQLenPdf::60                      0                       # What write queue length does an incoming req see
system.mem_ctrls.wrQLenPdf::61                      0                       # What write queue length does an incoming req see
system.mem_ctrls.wrQLenPdf::62                      0                       # What write queue length does an incoming req see
system.mem_ctrls.wrQLenPdf::63                      0                       # What write queue length does an incoming req see
system.mem_ctrls.bytesPerActivate::samples          243                       # Bytes accessed per row activation
system.mem_ctrls.bytesPerActivate::mean    366.880658                       # Bytes accessed per row activation
system.mem_ctrls.bytesPerActivate::gmean   229.681336                       # Bytes accessed per row activation
system.mem_ctrls.bytesPerActivate::stdev   342.028269                       # Bytes accessed per row activation
system.mem_ctrls.bytesPerActivate::0-127           65     26.75%     26.75% # Bytes accessed per row activation
system.mem_ctrls.bytesPerActivate::128-255           56     23.05%     49.79% # Bytes accessed per row activation
system.mem_ctrls.bytesPerActivate::256-383           41     16.87%     66.67% # Bytes accessed per row activation
system.mem_ctrls.bytesPerActivate::384-511           16      6.58%     73.25% # Bytes accessed per row activation
system.mem_ctrls.bytesPerActivate::512-639            7      2.88%     76.13% # Bytes accessed per row activation
system.mem_ctrls.bytesPerActivate::640-767            9      3.70%     79.84% # Bytes accessed per row activation
system.mem_ctrls.bytesPerActivate::768-895            8      3.29%     83.13% # Bytes accessed per row activation
system.mem_ctrls.bytesPerActivate::896-1023            5      2.06%     85.19% # Bytes accessed per row activation
system.mem_ctrls.bytesPerActivate::1024-1151           36     14.81%    100.00% # Bytes accessed per row activation
system.mem_ctrls.bytesPerActivate::total          243                       # Bytes accessed per row activation
system.mem_ctrls.bytesReadDRAM                  89152                       # Total number of bytes read from DRAM
system.mem_ctrls.bytesReadWrQ                       0                       # Total number of bytes read from write queue
system.mem_ctrls.bytesWritten                       0                       # Total number of bytes written to DRAM
system.mem_ctrls.bytesReadSys                   89152                       # Total read bytes from the system interface side
system.mem_ctrls.bytesWrittenSys                    0                       # Total written bytes from the system interface side
system.mem_ctrls.avgRdBW                        84.61                       # Average DRAM read bandwidth in MiByte/s
system.mem_ctrls.avgWrBW                         0.00                       # Average achieved write bandwidth in MiByte/s
system.mem_ctrls.avgRdBWSys                     84.61                       # Average system read bandwidth in MiByte/s
system.mem_ctrls.avgWrBWSys                      0.00                       # Average system write bandwidth in MiByte/s
system.mem_ctrls.peakBW                      12800.00                       # Theoretical peak bandwidth in MiByte/s
system.mem_ctrls.busUtil                         0.66                       # Data bus utilization in percentage
system.mem_ctrls.busUtilRead                     0.66                       # Data bus utilization in percentage for reads
system.mem_ctrls.busUtilWrite                    0.00                       # Data bus utilization in percentage for writes
system.mem_ctrls.totGap                    1038379000                       # Total gap between requests
system.mem_ctrls.avgGap                     745426.42                       # Average gap between requests
system.mem_ctrls.masterReadBytes::.cpu.inst        38208                       # Per-master bytes read from memory
system.mem_ctrls.masterReadBytes::.cpu.data        50944                       # Per-master bytes read from memory
[...]
system.cpu.icache.tags.power_state.pwrStateResidencyTicks::UNDEFINED   1053692000                       # Cumulative time (in ticks) in various power states
system.cpu.dtb.walker.power_state.pwrStateResidencyTicks::UNDEFINED   1053692000                       # Cumulative time (in ticks) in various power states
system.cpu.dtb.stage2_mmu.stage2_tlb.walker.power_state.pwrStateResidencyTicks::UNDEFINED   1053692000                       # Cumulative time (in ticks) in various power states
system.cpu.dcache.demand_hits::.cpu.data       382596                       # number of demand (read+write) hits
system.cpu.dcache.demand_hits::total           382596                       # number of demand (read+write) hits
system.cpu.dcache.overall_hits::.cpu.data       382618                       # number of overall hits
system.cpu.dcache.overall_hits::total          382618                       # number of overall hits
system.cpu.dcache.demand_misses::.cpu.data         2683                       # number of demand (read+write) misses
system.cpu.dcache.demand_misses::total           2683                       # number of demand (read+write) misses
system.cpu.dcache.overall_misses::.cpu.data         2685                       # number of overall misses
system.cpu.dcache.overall_misses::total          2685                       # number of overall misses
system.cpu.dcache.demand_miss_latency::.cpu.data    136633000                       # number of demand (read+write) miss cycles
system.cpu.dcache.demand_miss_latency::total    136633000                       # number of demand (read+write) miss cycles
system.cpu.dcache.overall_miss_latency::.cpu.data    136633000                       # number of overall miss cycles
system.cpu.dcache.overall_miss_latency::total    136633000                       # number of overall miss cycles
system.cpu.dcache.demand_accesses::.cpu.data       385279                       # number of demand (read+write) accesses
system.cpu.dcache.demand_accesses::total       385279                       # number of demand (read+write) accesses
system.cpu.dcache.overall_accesses::.cpu.data       385303                       # number of overall (read+write) accesses
system.cpu.dcache.overall_accesses::total       385303                       # number of overall (read+write) accesses
system.cpu.dcache.demand_miss_rate::.cpu.data     0.006964                       # miss rate for demand accesses
system.cpu.dcache.demand_miss_rate::total     0.006964                       # miss rate for demand accesses
system.cpu.dcache.overall_miss_rate::.cpu.data     0.006969                       # miss rate for overall accesses
system.cpu.dcache.overall_miss_rate::total     0.006969                       # miss rate for overall accesses
system.cpu.dcache.demand_avg_miss_latency::.cpu.data 50925.456578                       # average overall miss latency
system.cpu.dcache.demand_avg_miss_latency::total 50925.456578                       # average overall miss latency
system.cpu.dcache.overall_avg_miss_latency::.cpu.data 50887.523277                       # average overall miss latency
system.cpu.dcache.overall_avg_miss_latency::total 50887.523277                       # average overall miss latency
system.cpu.dcache.blocked_cycles::no_mshrs            0                       # number of cycles access was blocked
system.cpu.dcache.blocked_cycles::no_targets            0                       # number of cycles access was blocked
system.cpu.dcache.blocked::no_mshrs                 0                       # number of cycles access was blocked
system.cpu.dcache.blocked::no_targets               0                       # number of cycles access was blocked
system.cpu.dcache.avg_blocked_cycles::no_mshrs          nan                       # average number of cycles each access was blocked
system.cpu.dcache.avg_blocked_cycles::no_targets          nan                       # average number of cycles each access was blocked
system.cpu.dcache.writebacks::.writebacks          707                       # number of writebacks
system.cpu.dcache.writebacks::total               707                       # number of writebacks
system.cpu.dcache.demand_mshr_hits::.cpu.data          877                       # number of demand (read+write) MSHR hits
system.cpu.dcache.demand_mshr_hits::total          877                       # number of demand (read+write) MSHR hits
system.cpu.dcache.overall_mshr_hits::.cpu.data          877                       # number of overall MSHR hits
system.cpu.dcache.overall_mshr_hits::total          877                       # number of overall MSHR hits
system.cpu.dcache.demand_mshr_misses::.cpu.data         1806                       # number of demand (read+write) MSHR misses
system.cpu.dcache.demand_mshr_misses::total         1806                       # number of demand (read+write) MSHR misses
system.cpu.dcache.overall_mshr_misses::.cpu.data         1808                       # number of overall MSHR misses
system.cpu.dcache.overall_mshr_misses::total         1808                       # number of overall MSHR misses
system.cpu.dcache.demand_mshr_miss_latency::.cpu.data     84456500                       # number of demand (read+write) MSHR miss cycles
system.cpu.dcache.demand_mshr_miss_latency::total     84456500                       # number of demand (read+write) MSHR miss cycles
system.cpu.dcache.overall_mshr_miss_latency::.cpu.data     84641000                       # number of overall MSHR miss cycles
system.cpu.dcache.overall_mshr_miss_latency::total     84641000                       # number of overall MSHR miss cycles
system.cpu.dcache.demand_mshr_miss_rate::.cpu.data     0.004688                       # mshr miss rate for demand accesses
system.cpu.dcache.demand_mshr_miss_rate::total     0.004688                       # mshr miss rate for demand accesses
system.cpu.dcache.overall_mshr_miss_rate::.cpu.data     0.004692                       # mshr miss rate for overall accesses
system.cpu.dcache.overall_mshr_miss_rate::total     0.004692                       # mshr miss rate for overall accesses
system.cpu.dcache.demand_avg_mshr_miss_latency::.cpu.data 46764.396456                       # average overall mshr miss latency
system.cpu.dcache.demand_avg_mshr_miss_latency::total 46764.396456                       # average overall mshr miss latency
system.cpu.dcache.overall_avg_mshr_miss_latency::.cpu.data 46814.712389                       # average overall mshr miss latency
system.cpu.dcache.overall_avg_mshr_miss_latency::total 46814.712389                       # average overall mshr miss latency
system.cpu.dcache.replacements                    788                       # number of replacements
system.cpu.dcache.ReadReq_hits::.cpu.data       273219                       # number of ReadReq hits
system.cpu.dcache.ReadReq_hits::total          273219                       # number of ReadReq hits
system.cpu.dcache.ReadReq_misses::.cpu.data          378                       # number of ReadReq misses
system.cpu.dcache.ReadReq_misses::total           378                       # number of ReadReq misses
system.cpu.dcache.ReadReq_miss_latency::.cpu.data     12087500                       # number of ReadReq miss cycles
system.cpu.dcache.ReadReq_miss_latency::total     12087500                       # number of ReadReq miss cycles
system.cpu.dcache.ReadReq_accesses::.cpu.data       273597                       # number of ReadReq accesses(hits+misses)
system.cpu.dcache.ReadReq_accesses::total       273597                       # number of ReadReq accesses(hits+misses)
system.cpu.dcache.ReadReq_miss_rate::.cpu.data     0.001382                       # miss rate for ReadReq accesses
system.cpu.dcache.ReadReq_miss_rate::total     0.001382                       # miss rate for ReadReq accesses
system.cpu.dcache.ReadReq_avg_miss_latency::.cpu.data 31977.513228                       # average ReadReq miss latency
system.cpu.dcache.ReadReq_avg_miss_latency::total 31977.513228                       # average ReadReq miss latency
system.cpu.dcache.ReadReq_mshr_hits::.cpu.data           23                       # number of ReadReq MSHR hits
system.cpu.dcache.ReadReq_mshr_hits::total           23                       # number of ReadReq MSHR hits
system.cpu.dcache.ReadReq_mshr_misses::.cpu.data          355                       # number of ReadReq MSHR misses
system.cpu.dcache.ReadReq_mshr_misses::total          355                       # number of ReadReq MSHR misses
system.cpu.dcache.ReadReq_mshr_miss_latency::.cpu.data     10768000                       # number of ReadReq MSHR miss cycles
system.cpu.dcache.ReadReq_mshr_miss_latency::total     10768000                       # number of ReadReq MSHR miss cycles
system.cpu.dcache.ReadReq_mshr_miss_rate::.cpu.data     0.001298                       # mshr miss rate for ReadReq accesses
system.cpu.dcache.ReadReq_mshr_miss_rate::total     0.001298                       # mshr miss rate for ReadReq accesses
system.cpu.dcache.ReadReq_avg_mshr_miss_latency::.cpu.data 30332.394366                       # average ReadReq mshr miss latency
system.cpu.dcache.ReadReq_avg_mshr_miss_latency::total 30332.394366                       # average ReadReq mshr miss latency
system.cpu.dcache.WriteReq_hits::.cpu.data       109358                       # number of WriteReq hits
system.cpu.dcache.WriteReq_hits::total         109358                       # number of WriteReq hits
system.cpu.dcache.WriteReq_misses::.cpu.data         1760                       # number of WriteReq misses
system.cpu.dcache.WriteReq_misses::total         1760                       # number of WriteReq misses
system.cpu.dcache.WriteReq_miss_latency::.cpu.data    107374500                       # number of WriteReq miss cycles
system.cpu.dcache.WriteReq_miss_latency::total    107374500                       # number of WriteReq miss cycles
system.cpu.dcache.WriteReq_accesses::.cpu.data       111118                       # number of WriteReq accesses(hits+misses)
system.cpu.dcache.WriteReq_accesses::total       111118                       # number of WriteReq accesses(hits+misses)
system.cpu.dcache.WriteReq_miss_rate::.cpu.data     0.015839                       # miss rate for WriteReq accesses
system.cpu.dcache.WriteReq_miss_rate::total     0.015839                       # miss rate for WriteReq accesses
system.cpu.dcache.WriteReq_avg_miss_latency::.cpu.data 61008.238636                       # average WriteReq miss latency
system.cpu.dcache.WriteReq_avg_miss_latency::total 61008.238636                       # average WriteReq miss latency
system.cpu.dcache.WriteReq_mshr_hits::.cpu.data          854                       # number of WriteReq MSHR hits
system.cpu.dcache.WriteReq_mshr_hits::total          854                       # number of WriteReq MSHR hits
system.cpu.dcache.WriteReq_mshr_misses::.cpu.data          906                       # number of WriteReq MSHR misses
system.cpu.dcache.WriteReq_mshr_misses::total          906                       # number of WriteReq MSHR misses
system.cpu.dcache.WriteReq_mshr_miss_latency::.cpu.data     57062500                       # number of WriteReq MSHR miss cycles
system.cpu.dcache.WriteReq_mshr_miss_latency::total     57062500                       # number of WriteReq MSHR miss cycles
system.cpu.dcache.WriteReq_mshr_miss_rate::.cpu.data     0.008153                       # mshr miss rate for WriteReq accesses
system.cpu.dcache.WriteReq_mshr_miss_rate::total     0.008153                       # mshr miss rate for WriteReq accesses
system.cpu.dcache.WriteReq_avg_mshr_miss_latency::.cpu.data 62982.891832                       # average WriteReq mshr miss latency
system.cpu.dcache.WriteReq_avg_mshr_miss_latency::total 62982.891832                       # average WriteReq mshr miss latency
system.cpu.dcache.SoftPFReq_hits::.cpu.data           22                       # number of SoftPFReq hits
system.cpu.dcache.SoftPFReq_hits::total            22                       # number of SoftPFReq hits
system.cpu.dcache.SoftPFReq_misses::.cpu.data            2                       # number of SoftPFReq misses
system.cpu.dcache.SoftPFReq_misses::total            2                       # number of SoftPFReq misses
system.cpu.dcache.SoftPFReq_accesses::.cpu.data           24                       # number of SoftPFReq accesses(hits+misses)
system.cpu.dcache.SoftPFReq_accesses::total           24                       # number of SoftPFReq accesses(hits+misses)
system.cpu.dcache.SoftPFReq_miss_rate::.cpu.data     0.083333                       # miss rate for SoftPFReq accesses
system.cpu.dcache.SoftPFReq_miss_rate::total     0.083333                       # miss rate for SoftPFReq accesses
system.cpu.dcache.SoftPFReq_mshr_misses::.cpu.data            2                       # number of SoftPFReq MSHR misses
system.cpu.dcache.SoftPFReq_mshr_misses::total            2                       # number of SoftPFReq MSHR misses
system.cpu.dcache.SoftPFReq_mshr_miss_latency::.cpu.data       184500                       # number of SoftPFReq MSHR miss cycles
system.cpu.dcache.SoftPFReq_mshr_miss_latency::total       184500                       # number of SoftPFReq MSHR miss cycles
system.cpu.dcache.SoftPFReq_mshr_miss_rate::.cpu.data     0.083333                       # mshr miss rate for SoftPFReq accesses
system.cpu.dcache.SoftPFReq_mshr_miss_rate::total     0.083333                       # mshr miss rate for SoftPFReq accesses
system.cpu.dcache.SoftPFReq_avg_mshr_miss_latency::.cpu.data        92250                       # average SoftPFReq mshr miss latency
system.cpu.dcache.SoftPFReq_avg_mshr_miss_latency::total        92250                       # average SoftPFReq mshr miss latency
system.cpu.dcache.WriteLineReq_hits::.cpu.data           19                       # number of WriteLineReq hits
system.cpu.dcache.WriteLineReq_hits::total           19                       # number of WriteLineReq hits
system.cpu.dcache.WriteLineReq_misses::.cpu.data          545                       # number of WriteLineReq misses
system.cpu.dcache.WriteLineReq_misses::total          545                       # number of WriteLineReq misses
system.cpu.dcache.WriteLineReq_miss_latency::.cpu.data     17171000                       # number of WriteLineReq miss cycles
system.cpu.dcache.WriteLineReq_miss_latency::total     17171000                       # number of WriteLineReq miss cycles
system.cpu.dcache.WriteLineReq_accesses::.cpu.data          564                       # number of WriteLineReq accesses(hits+misses)
system.cpu.dcache.WriteLineReq_accesses::total          564                       # number of WriteLineReq accesses(hits+misses)
system.cpu.dcache.WriteLineReq_miss_rate::.cpu.data     0.966312                       # miss rate for WriteLineReq accesses
system.cpu.dcache.WriteLineReq_miss_rate::total     0.966312                       # miss rate for WriteLineReq accesses
system.cpu.dcache.WriteLineReq_avg_miss_latency::.cpu.data 31506.422018                       # average WriteLineReq miss latency
system.cpu.dcache.WriteLineReq_avg_miss_latency::total 31506.422018                       # average WriteLineReq miss latency
system.cpu.dcache.WriteLineReq_mshr_misses::.cpu.data          545                       # number of WriteLineReq MSHR misses
system.cpu.dcache.WriteLineReq_mshr_misses::total          545                       # number of WriteLineReq MSHR misses
system.cpu.dcache.WriteLineReq_mshr_miss_latency::.cpu.data     16626000                       # number of WriteLineReq MSHR miss cycles
system.cpu.dcache.WriteLineReq_mshr_miss_latency::total     16626000                       # number of WriteLineReq MSHR miss cycles
system.cpu.dcache.WriteLineReq_mshr_miss_rate::.cpu.data     0.966312                       # mshr miss rate for WriteLineReq accesses
system.cpu.dcache.WriteLineReq_mshr_miss_rate::total     0.966312                       # mshr miss rate for WriteLineReq accesses
system.cpu.dcache.WriteLineReq_avg_mshr_miss_latency::.cpu.data 30506.422018                       # average WriteLineReq mshr miss latency
system.cpu.dcache.WriteLineReq_avg_mshr_miss_latency::total 30506.422018                       # average WriteLineReq mshr miss latency
system.cpu.dcache.LoadLockedReq_hits::.cpu.data           48                       # number of LoadLockedReq hits
system.cpu.dcache.LoadLockedReq_hits::total           48                       # number of LoadLockedReq hits
system.cpu.dcache.LoadLockedReq_accesses::.cpu.data           48                       # number of LoadLockedReq accesses(hits+misses)
system.cpu.dcache.LoadLockedReq_accesses::total           48                       # number of LoadLockedReq accesses(hits+misses)
system.cpu.dcache.StoreCondReq_hits::.cpu.data           48                       # number of StoreCondReq hits
system.cpu.dcache.StoreCondReq_hits::total           48                       # number of StoreCondReq hits
system.cpu.dcache.StoreCondReq_accesses::.cpu.data           48                       # number of StoreCondReq accesses(hits+misses)
system.cpu.dcache.StoreCondReq_accesses::total           48                       # number of StoreCondReq accesses(hits+misses)
system.cpu.dcache.power_state.pwrStateResidencyTicks::UNDEFINED   1053692000                       # Cumulative time (in ticks) in various power states
system.cpu.dcache.tags.tagsinuse           768.756034                       # Cycle average of tags in use
system.cpu.dcache.tags.total_refs              384522                       # Total number of references to valid blocks.
system.cpu.dcache.tags.sampled_refs              1808                       # Sample count of references to valid blocks.
system.cpu.dcache.tags.avg_refs            212.678097                       # Average number of references to valid blocks.
system.cpu.dcache.tags.warmup_cycle            177500                       # Cycle when the warmup percentage was hit.
system.cpu.dcache.tags.occ_blocks::.cpu.data   768.756034                       # Average occupied blocks per requestor
system.cpu.dcache.tags.occ_percent::.cpu.data     0.750738                       # Average percentage of cache occupancy
system.cpu.dcache.tags.occ_percent::total     0.750738                       # Average percentage of cache occupancy
system.cpu.dcache.tags.occ_task_id_blocks::1024         1020                       # Occupied blocks per task id
system.cpu.dcache.tags.age_task_id_blocks_1024::0            5                       # Occupied blocks per task id
system.cpu.dcache.tags.age_task_id_blocks_1024::1          199                       # Occupied blocks per task id
system.cpu.dcache.tags.age_task_id_blocks_1024::2          703                       # Occupied blocks per task id
system.cpu.dcache.tags.age_task_id_blocks_1024::3          113                       # Occupied blocks per task id
system.cpu.dcache.tags.occ_task_id_percent::1024     0.996094                       # Percentage of cache occupancy per task id
system.cpu.dcache.tags.tag_accesses            772606                       # Number of tag accesses
system.cpu.dcache.tags.data_accesses           772606                       # Number of data accesses
system.cpu.dcache.tags.power_state.pwrStateResidencyTicks::UNDEFINED   1053692000                       # Cumulative time (in ticks) in various power states
system.cpu.power_state.pwrStateResidencyTicks::ON   1053692000                       # Cumulative time (in ticks) in various power states
system.cpu.itb.walker.power_state.pwrStateResidencyTicks::UNDEFINED   1053692000                       # Cumulative time (in ticks) in various power states
system.cpu.itb.stage2_mmu.stage2_tlb.walker.power_state.pwrStateResidencyTicks::UNDEFINED   1053692000                       # Cumulative time (in ticks) in various power states

---------- End Simulation Statistics   ----------
